*
* Deltares, Delft3D-RGFGRID Version 4.17.04.11240, Apr 13 2010, 20:40:47
* File creation date: 2010-05-18, 16:19:14
*
Coordinate System = Cartesian
      91      31
 0 0 0
 ETA=    1   1.00000000000000000E+01   2.00000000000000000E+01   3.00000000000000000E+01   4.00000000000000000E+01   5.00000000000000000E+01
             6.00000000000000000E+01   7.00000000000000000E+01   8.00000000000000000E+01   9.00000000000000000E+01   1.00000000000000000E+02
             1.10000000000000000E+02   1.20000000000000000E+02   1.30000000000000000E+02   1.40000000000000000E+02   1.50000000000000000E+02
             1.60000000000000000E+02   1.70000000000000000E+02   1.80000000000000000E+02   1.90000000000000000E+02   2.00000000000000000E+02
             2.10000000000000000E+02   2.20000000000000000E+02   2.30000000000000000E+02   2.40000000000000000E+02   2.50000000000000000E+02
             2.60000000000000000E+02   2.70000000000000000E+02   2.80000000000000000E+02   2.90000000000000000E+02   3.00000000000000000E+02
             3.10000000000000000E+02   3.20000000000000000E+02   3.30000000000000000E+02   3.40000000000000000E+02   3.50000000000000000E+02
             3.60000000000000000E+02   3.70000000000000000E+02   3.80000000000000000E+02   3.90000000000000000E+02   4.00000000000000000E+02
             4.10000000000000000E+02   4.20000000000000000E+02   4.30000000000000000E+02   4.40000000000000000E+02   4.50000000000000000E+02
             4.60000000000000000E+02   4.70000000000000000E+02   4.80000000000000000E+02   4.90000000000000000E+02   5.00000000000000000E+02
             5.10000000000000000E+02   5.20000000000000000E+02   5.30000000000000000E+02   5.40000000000000000E+02   5.50000000000000000E+02
             5.60000000000000000E+02   5.70000000000000000E+02   5.80000000000000000E+02   5.90000000000000000E+02   6.00000000000000000E+02
             6.10000000000000000E+02   6.20000000000000000E+02   6.30000000000000000E+02   6.40000000000000000E+02   6.50000000000000000E+02
             6.60000000000000000E+02   6.70000000000000000E+02   6.80000000000000000E+02   6.90000000000000000E+02   7.00000000000000000E+02
             7.10000000000000000E+02   7.20000000000000000E+02   7.30000000000000000E+02   7.40000000000000000E+02   7.50000000000000000E+02
             7.60000000000000000E+02   7.70000000000000000E+02   7.80000000000000000E+02   7.90000000000000000E+02   8.00000000000000000E+02
             8.10000000000000000E+02   8.20000000000000000E+02   8.30000000000000000E+02   8.40000000000000000E+02   8.50000000000000000E+02
             8.60000000000000000E+02   8.70000000000000000E+02   8.80000000000000000E+02   8.90000000000000000E+02   9.00000000000000000E+02
             9.10000000000000000E+02
 ETA=    2   1.00000000000000000E+01   2.00000000000000000E+01   3.00000000000000000E+01   4.00000000000000000E+01   5.00000000000000000E+01
             6.00000000000000000E+01   7.00000000000000000E+01   8.00000000000000000E+01   9.00000000000000000E+01   1.00000000000000000E+02
             1.10000000000000000E+02   1.20000000000000000E+02   1.30000000000000000E+02   1.40000000000000000E+02   1.50000000000000000E+02
             1.60000000000000000E+02   1.70000000000000000E+02   1.80000000000000000E+02   1.90000000000000000E+02   2.00000000000000000E+02
             2.10000000000000000E+02   2.20000000000000000E+02   2.30000000000000000E+02   2.40000000000000000E+02   2.50000000000000000E+02
             2.60000000000000000E+02   2.70000000000000000E+02   2.80000000000000000E+02   2.90000000000000000E+02   3.00000000000000000E+02
             3.10000000000000000E+02   3.20000000000000000E+02   3.30000000000000000E+02   3.40000000000000000E+02   3.50000000000000000E+02
             3.60000000000000000E+02   3.70000000000000000E+02   3.80000000000000000E+02   3.90000000000000000E+02   4.00000000000000000E+02
             4.10000000000000000E+02   4.20000000000000000E+02   4.30000000000000000E+02   4.40000000000000000E+02   4.50000000000000000E+02
             4.60000000000000000E+02   4.70000000000000000E+02   4.80000000000000000E+02   4.90000000000000000E+02   5.00000000000000000E+02
             5.10000000000000000E+02   5.20000000000000000E+02   5.30000000000000000E+02   5.40000000000000000E+02   5.50000000000000000E+02
             5.60000000000000000E+02   5.70000000000000000E+02   5.80000000000000000E+02   5.90000000000000000E+02   6.00000000000000000E+02
             6.10000000000000000E+02   6.20000000000000000E+02   6.30000000000000000E+02   6.40000000000000000E+02   6.50000000000000000E+02
             6.60000000000000000E+02   6.70000000000000000E+02   6.80000000000000000E+02   6.90000000000000000E+02   7.00000000000000000E+02
             7.10000000000000000E+02   7.20000000000000000E+02   7.30000000000000000E+02   7.40000000000000000E+02   7.50000000000000000E+02
             7.60000000000000000E+02   7.70000000000000000E+02   7.80000000000000000E+02   7.90000000000000000E+02   8.00000000000000000E+02
             8.10000000000000000E+02   8.20000000000000000E+02   8.30000000000000000E+02   8.40000000000000000E+02   8.50000000000000000E+02
             8.60000000000000000E+02   8.70000000000000000E+02   8.80000000000000000E+02   8.90000000000000000E+02   9.00000000000000000E+02
             9.10000000000000000E+02
 ETA=    3   1.00000000000000000E+01   2.00000000000000000E+01   3.00000000000000000E+01   4.00000000000000000E+01   5.00000000000000000E+01
             6.00000000000000000E+01   7.00000000000000000E+01   8.00000000000000000E+01   9.00000000000000000E+01   1.00000000000000000E+02
             1.10000000000000000E+02   1.20000000000000000E+02   1.30000000000000000E+02   1.40000000000000000E+02   1.50000000000000000E+02
             1.60000000000000000E+02   1.70000000000000000E+02   1.80000000000000000E+02   1.90000000000000000E+02   2.00000000000000000E+02
             2.10000000000000000E+02   2.20000000000000000E+02   2.30000000000000000E+02   2.40000000000000000E+02   2.50000000000000000E+02
             2.60000000000000000E+02   2.70000000000000000E+02   2.80000000000000000E+02   2.90000000000000000E+02   3.00000000000000000E+02
             3.10000000000000000E+02   3.20000000000000000E+02   3.30000000000000000E+02   3.40000000000000000E+02   3.50000000000000000E+02
             3.60000000000000000E+02   3.70000000000000000E+02   3.80000000000000000E+02   3.90000000000000000E+02   4.00000000000000000E+02
             4.10000000000000000E+02   4.20000000000000000E+02   4.30000000000000000E+02   4.40000000000000000E+02   4.50000000000000000E+02
             4.60000000000000000E+02   4.70000000000000000E+02   4.80000000000000000E+02   4.90000000000000000E+02   5.00000000000000000E+02
             5.10000000000000000E+02   5.20000000000000000E+02   5.30000000000000000E+02   5.40000000000000000E+02   5.50000000000000000E+02
             5.60000000000000000E+02   5.70000000000000000E+02   5.80000000000000000E+02   5.90000000000000000E+02   6.00000000000000000E+02
             6.10000000000000000E+02   6.20000000000000000E+02   6.30000000000000000E+02   6.40000000000000000E+02   6.50000000000000000E+02
             6.60000000000000000E+02   6.70000000000000000E+02   6.80000000000000000E+02   6.90000000000000000E+02   7.00000000000000000E+02
             7.10000000000000000E+02   7.20000000000000000E+02   7.30000000000000000E+02   7.40000000000000000E+02   7.50000000000000000E+02
             7.60000000000000000E+02   7.70000000000000000E+02   7.80000000000000000E+02   7.90000000000000000E+02   8.00000000000000000E+02
             8.10000000000000000E+02   8.20000000000000000E+02   8.30000000000000000E+02   8.40000000000000000E+02   8.50000000000000000E+02
             8.60000000000000000E+02   8.70000000000000000E+02   8.80000000000000000E+02   8.90000000000000000E+02   9.00000000000000000E+02
             9.10000000000000000E+02
 ETA=    4   1.00000000000000000E+01   2.00000000000000000E+01   3.00000000000000000E+01   4.00000000000000000E+01   5.00000000000000000E+01
             6.00000000000000000E+01   7.00000000000000000E+01   8.00000000000000000E+01   9.00000000000000000E+01   1.00000000000000000E+02
             1.10000000000000000E+02   1.20000000000000000E+02   1.30000000000000000E+02   1.40000000000000000E+02   1.50000000000000000E+02
             1.60000000000000000E+02   1.70000000000000000E+02   1.80000000000000000E+02   1.90000000000000000E+02   2.00000000000000000E+02
             2.10000000000000000E+02   2.20000000000000000E+02   2.30000000000000000E+02   2.40000000000000000E+02   2.50000000000000000E+02
             2.60000000000000000E+02   2.70000000000000000E+02   2.80000000000000000E+02   2.90000000000000000E+02   3.00000000000000000E+02
             3.10000000000000000E+02   3.20000000000000000E+02   3.30000000000000000E+02   3.40000000000000000E+02   3.50000000000000000E+02
             3.60000000000000000E+02   3.70000000000000000E+02   3.80000000000000000E+02   3.90000000000000000E+02   4.00000000000000000E+02
             4.10000000000000000E+02   4.20000000000000000E+02   4.30000000000000000E+02   4.40000000000000000E+02   4.50000000000000000E+02
             4.60000000000000000E+02   4.70000000000000000E+02   4.80000000000000000E+02   4.90000000000000000E+02   5.00000000000000000E+02
             5.10000000000000000E+02   5.20000000000000000E+02   5.30000000000000000E+02   5.40000000000000000E+02   5.50000000000000000E+02
             5.60000000000000000E+02   5.70000000000000000E+02   5.80000000000000000E+02   5.90000000000000000E+02   6.00000000000000000E+02
             6.10000000000000000E+02   6.20000000000000000E+02   6.30000000000000000E+02   6.40000000000000000E+02   6.50000000000000000E+02
             6.60000000000000000E+02   6.70000000000000000E+02   6.80000000000000000E+02   6.90000000000000000E+02   7.00000000000000000E+02
             7.10000000000000000E+02   7.20000000000000000E+02   7.30000000000000000E+02   7.40000000000000000E+02   7.50000000000000000E+02
             7.60000000000000000E+02   7.70000000000000000E+02   7.80000000000000000E+02   7.90000000000000000E+02   8.00000000000000000E+02
             8.10000000000000000E+02   8.20000000000000000E+02   8.30000000000000000E+02   8.40000000000000000E+02   8.50000000000000000E+02
             8.60000000000000000E+02   8.70000000000000000E+02   8.80000000000000000E+02   8.90000000000000000E+02   9.00000000000000000E+02
             9.10000000000000000E+02
 ETA=    5   1.00000000000000000E+01   2.00000000000000000E+01   3.00000000000000000E+01   4.00000000000000000E+01   5.00000000000000000E+01
             6.00000000000000000E+01   7.00000000000000000E+01   8.00000000000000000E+01   9.00000000000000000E+01   1.00000000000000000E+02
             1.10000000000000000E+02   1.20000000000000000E+02   1.30000000000000000E+02   1.40000000000000000E+02   1.50000000000000000E+02
             1.60000000000000000E+02   1.70000000000000000E+02   1.80000000000000000E+02   1.90000000000000000E+02   2.00000000000000000E+02
             2.10000000000000000E+02   2.20000000000000000E+02   2.30000000000000000E+02   2.40000000000000000E+02   2.50000000000000000E+02
             2.60000000000000000E+02   2.70000000000000000E+02   2.80000000000000000E+02   2.90000000000000000E+02   3.00000000000000000E+02
             3.10000000000000000E+02   3.20000000000000000E+02   3.30000000000000000E+02   3.40000000000000000E+02   3.50000000000000000E+02
             3.60000000000000000E+02   3.70000000000000000E+02   3.80000000000000000E+02   3.90000000000000000E+02   4.00000000000000000E+02
             4.10000000000000000E+02   4.20000000000000000E+02   4.30000000000000000E+02   4.40000000000000000E+02   4.50000000000000000E+02
             4.60000000000000000E+02   4.70000000000000000E+02   4.80000000000000000E+02   4.90000000000000000E+02   5.00000000000000000E+02
             5.10000000000000000E+02   5.20000000000000000E+02   5.30000000000000000E+02   5.40000000000000000E+02   5.50000000000000000E+02
             5.60000000000000000E+02   5.70000000000000000E+02   5.80000000000000000E+02   5.90000000000000000E+02   6.00000000000000000E+02
             6.10000000000000000E+02   6.20000000000000000E+02   6.30000000000000000E+02   6.40000000000000000E+02   6.50000000000000000E+02
             6.60000000000000000E+02   6.70000000000000000E+02   6.80000000000000000E+02   6.90000000000000000E+02   7.00000000000000000E+02
             7.10000000000000000E+02   7.20000000000000000E+02   7.30000000000000000E+02   7.40000000000000000E+02   7.50000000000000000E+02
             7.60000000000000000E+02   7.70000000000000000E+02   7.80000000000000000E+02   7.90000000000000000E+02   8.00000000000000000E+02
             8.10000000000000000E+02   8.20000000000000000E+02   8.30000000000000000E+02   8.40000000000000000E+02   8.50000000000000000E+02
             8.60000000000000000E+02   8.70000000000000000E+02   8.80000000000000000E+02   8.90000000000000000E+02   9.00000000000000000E+02
             9.10000000000000000E+02
 ETA=    6   1.00000000000000000E+01   2.00000000000000000E+01   3.00000000000000000E+01   4.00000000000000000E+01   5.00000000000000000E+01
             6.00000000000000000E+01   7.00000000000000000E+01   8.00000000000000000E+01   9.00000000000000000E+01   1.00000000000000000E+02
             1.10000000000000000E+02   1.20000000000000000E+02   1.30000000000000000E+02   1.40000000000000000E+02   1.50000000000000000E+02
             1.60000000000000000E+02   1.70000000000000000E+02   1.80000000000000000E+02   1.90000000000000000E+02   2.00000000000000000E+02
             2.10000000000000000E+02   2.20000000000000000E+02   2.30000000000000000E+02   2.40000000000000000E+02   2.50000000000000000E+02
             2.60000000000000000E+02   2.70000000000000000E+02   2.80000000000000000E+02   2.90000000000000000E+02   3.00000000000000000E+02
             3.10000000000000000E+02   3.20000000000000000E+02   3.30000000000000000E+02   3.40000000000000000E+02   3.50000000000000000E+02
             3.60000000000000000E+02   3.70000000000000000E+02   3.80000000000000000E+02   3.90000000000000000E+02   4.00000000000000000E+02
             4.10000000000000000E+02   4.20000000000000000E+02   4.30000000000000000E+02   4.40000000000000000E+02   4.50000000000000000E+02
             4.60000000000000000E+02   4.70000000000000000E+02   4.80000000000000000E+02   4.90000000000000000E+02   5.00000000000000000E+02
             5.10000000000000000E+02   5.20000000000000000E+02   5.30000000000000000E+02   5.40000000000000000E+02   5.50000000000000000E+02
             5.60000000000000000E+02   5.70000000000000000E+02   5.80000000000000000E+02   5.90000000000000000E+02   6.00000000000000000E+02
             6.10000000000000000E+02   6.20000000000000000E+02   6.30000000000000000E+02   6.40000000000000000E+02   6.50000000000000000E+02
             6.60000000000000000E+02   6.70000000000000000E+02   6.80000000000000000E+02   6.90000000000000000E+02   7.00000000000000000E+02
             7.10000000000000000E+02   7.20000000000000000E+02   7.30000000000000000E+02   7.40000000000000000E+02   7.50000000000000000E+02
             7.60000000000000000E+02   7.70000000000000000E+02   7.80000000000000000E+02   7.90000000000000000E+02   8.00000000000000000E+02
             8.10000000000000000E+02   8.20000000000000000E+02   8.30000000000000000E+02   8.40000000000000000E+02   8.50000000000000000E+02
             8.60000000000000000E+02   8.70000000000000000E+02   8.80000000000000000E+02   8.90000000000000000E+02   9.00000000000000000E+02
             9.10000000000000000E+02
 ETA=    7   1.00000000000000000E+01   2.00000000000000000E+01   3.00000000000000000E+01   4.00000000000000000E+01   5.00000000000000000E+01
             6.00000000000000000E+01   7.00000000000000000E+01   8.00000000000000000E+01   9.00000000000000000E+01   1.00000000000000000E+02
             1.10000000000000000E+02   1.20000000000000000E+02   1.30000000000000000E+02   1.40000000000000000E+02   1.50000000000000000E+02
             1.60000000000000000E+02   1.70000000000000000E+02   1.80000000000000000E+02   1.90000000000000000E+02   2.00000000000000000E+02
             2.10000000000000000E+02   2.20000000000000000E+02   2.30000000000000000E+02   2.40000000000000000E+02   2.50000000000000000E+02
             2.60000000000000000E+02   2.70000000000000000E+02   2.80000000000000000E+02   2.90000000000000000E+02   3.00000000000000000E+02
             3.10000000000000000E+02   3.20000000000000000E+02   3.30000000000000000E+02   3.40000000000000000E+02   3.50000000000000000E+02
             3.60000000000000000E+02   3.70000000000000000E+02   3.80000000000000000E+02   3.90000000000000000E+02   4.00000000000000000E+02
             4.10000000000000000E+02   4.20000000000000000E+02   4.30000000000000000E+02   4.40000000000000000E+02   4.50000000000000000E+02
             4.60000000000000000E+02   4.70000000000000000E+02   4.80000000000000000E+02   4.90000000000000000E+02   5.00000000000000000E+02
             5.10000000000000000E+02   5.20000000000000000E+02   5.30000000000000000E+02   5.40000000000000000E+02   5.50000000000000000E+02
             5.60000000000000000E+02   5.70000000000000000E+02   5.80000000000000000E+02   5.90000000000000000E+02   6.00000000000000000E+02
             6.10000000000000000E+02   6.20000000000000000E+02   6.30000000000000000E+02   6.40000000000000000E+02   6.50000000000000000E+02
             6.60000000000000000E+02   6.70000000000000000E+02   6.80000000000000000E+02   6.90000000000000000E+02   7.00000000000000000E+02
             7.10000000000000000E+02   7.20000000000000000E+02   7.30000000000000000E+02   7.40000000000000000E+02   7.50000000000000000E+02
             7.60000000000000000E+02   7.70000000000000000E+02   7.80000000000000000E+02   7.90000000000000000E+02   8.00000000000000000E+02
             8.10000000000000000E+02   8.20000000000000000E+02   8.30000000000000000E+02   8.40000000000000000E+02   8.50000000000000000E+02
             8.60000000000000000E+02   8.70000000000000000E+02   8.80000000000000000E+02   8.90000000000000000E+02   9.00000000000000000E+02
             9.10000000000000000E+02
 ETA=    8   1.00000000000000000E+01   2.00000000000000000E+01   3.00000000000000000E+01   4.00000000000000000E+01   5.00000000000000000E+01
             6.00000000000000000E+01   7.00000000000000000E+01   8.00000000000000000E+01   9.00000000000000000E+01   1.00000000000000000E+02
             1.10000000000000000E+02   1.20000000000000000E+02   1.30000000000000000E+02   1.40000000000000000E+02   1.50000000000000000E+02
             1.60000000000000000E+02   1.70000000000000000E+02   1.80000000000000000E+02   1.90000000000000000E+02   2.00000000000000000E+02
             2.10000000000000000E+02   2.20000000000000000E+02   2.30000000000000000E+02   2.40000000000000000E+02   2.50000000000000000E+02
             2.60000000000000000E+02   2.70000000000000000E+02   2.80000000000000000E+02   2.90000000000000000E+02   3.00000000000000000E+02
             3.10000000000000000E+02   3.20000000000000000E+02   3.30000000000000000E+02   3.40000000000000000E+02   3.50000000000000000E+02
             3.60000000000000000E+02   3.70000000000000000E+02   3.80000000000000000E+02   3.90000000000000000E+02   4.00000000000000000E+02
             4.10000000000000000E+02   4.20000000000000000E+02   4.30000000000000000E+02   4.40000000000000000E+02   4.50000000000000000E+02
             4.60000000000000000E+02   4.70000000000000000E+02   4.80000000000000000E+02   4.90000000000000000E+02   5.00000000000000000E+02
             5.10000000000000000E+02   5.20000000000000000E+02   5.30000000000000000E+02   5.40000000000000000E+02   5.50000000000000000E+02
             5.60000000000000000E+02   5.70000000000000000E+02   5.80000000000000000E+02   5.90000000000000000E+02   6.00000000000000000E+02
             6.10000000000000000E+02   6.20000000000000000E+02   6.30000000000000000E+02   6.40000000000000000E+02   6.50000000000000000E+02
             6.60000000000000000E+02   6.70000000000000000E+02   6.80000000000000000E+02   6.90000000000000000E+02   7.00000000000000000E+02
             7.10000000000000000E+02   7.20000000000000000E+02   7.30000000000000000E+02   7.40000000000000000E+02   7.50000000000000000E+02
             7.60000000000000000E+02   7.70000000000000000E+02   7.80000000000000000E+02   7.90000000000000000E+02   8.00000000000000000E+02
             8.10000000000000000E+02   8.20000000000000000E+02   8.30000000000000000E+02   8.40000000000000000E+02   8.50000000000000000E+02
             8.60000000000000000E+02   8.70000000000000000E+02   8.80000000000000000E+02   8.90000000000000000E+02   9.00000000000000000E+02
             9.10000000000000000E+02
 ETA=    9   1.00000000000000000E+01   2.00000000000000000E+01   3.00000000000000000E+01   4.00000000000000000E+01   5.00000000000000000E+01
             6.00000000000000000E+01   7.00000000000000000E+01   8.00000000000000000E+01   9.00000000000000000E+01   1.00000000000000000E+02
             1.10000000000000000E+02   1.20000000000000000E+02   1.30000000000000000E+02   1.40000000000000000E+02   1.50000000000000000E+02
             1.60000000000000000E+02   1.70000000000000000E+02   1.80000000000000000E+02   1.90000000000000000E+02   2.00000000000000000E+02
             2.10000000000000000E+02   2.20000000000000000E+02   2.30000000000000000E+02   2.40000000000000000E+02   2.50000000000000000E+02
             2.60000000000000000E+02   2.70000000000000000E+02   2.80000000000000000E+02   2.90000000000000000E+02   3.00000000000000000E+02
             3.10000000000000000E+02   3.20000000000000000E+02   3.30000000000000000E+02   3.40000000000000000E+02   3.50000000000000000E+02
             3.60000000000000000E+02   3.70000000000000000E+02   3.80000000000000000E+02   3.90000000000000000E+02   4.00000000000000000E+02
             4.10000000000000000E+02   4.20000000000000000E+02   4.30000000000000000E+02   4.40000000000000000E+02   4.50000000000000000E+02
             4.60000000000000000E+02   4.70000000000000000E+02   4.80000000000000000E+02   4.90000000000000000E+02   5.00000000000000000E+02
             5.10000000000000000E+02   5.20000000000000000E+02   5.30000000000000000E+02   5.40000000000000000E+02   5.50000000000000000E+02
             5.60000000000000000E+02   5.70000000000000000E+02   5.80000000000000000E+02   5.90000000000000000E+02   6.00000000000000000E+02
             6.10000000000000000E+02   6.20000000000000000E+02   6.30000000000000000E+02   6.40000000000000000E+02   6.50000000000000000E+02
             6.60000000000000000E+02   6.70000000000000000E+02   6.80000000000000000E+02   6.90000000000000000E+02   7.00000000000000000E+02
             7.10000000000000000E+02   7.20000000000000000E+02   7.30000000000000000E+02   7.40000000000000000E+02   7.50000000000000000E+02
             7.60000000000000000E+02   7.70000000000000000E+02   7.80000000000000000E+02   7.90000000000000000E+02   8.00000000000000000E+02
             8.10000000000000000E+02   8.20000000000000000E+02   8.30000000000000000E+02   8.40000000000000000E+02   8.50000000000000000E+02
             8.60000000000000000E+02   8.70000000000000000E+02   8.80000000000000000E+02   8.90000000000000000E+02   9.00000000000000000E+02
             9.10000000000000000E+02
 ETA=   10   1.00000000000000000E+01   2.00000000000000000E+01   3.00000000000000000E+01   4.00000000000000000E+01   5.00000000000000000E+01
             6.00000000000000000E+01   7.00000000000000000E+01   8.00000000000000000E+01   9.00000000000000000E+01   1.00000000000000000E+02
             1.10000000000000000E+02   1.20000000000000000E+02   1.30000000000000000E+02   1.40000000000000000E+02   1.50000000000000000E+02
             1.60000000000000000E+02   1.70000000000000000E+02   1.80000000000000000E+02   1.90000000000000000E+02   2.00000000000000000E+02
             2.10000000000000000E+02   2.20000000000000000E+02   2.30000000000000000E+02   2.40000000000000000E+02   2.50000000000000000E+02
             2.60000000000000000E+02   2.70000000000000000E+02   2.80000000000000000E+02   2.90000000000000000E+02   3.00000000000000000E+02
             3.10000000000000000E+02   3.20000000000000000E+02   3.30000000000000000E+02   3.40000000000000000E+02   3.50000000000000000E+02
             3.60000000000000000E+02   3.70000000000000000E+02   3.80000000000000000E+02   3.90000000000000000E+02   4.00000000000000000E+02
             4.10000000000000000E+02   4.20000000000000000E+02   4.30000000000000000E+02   4.40000000000000000E+02   4.50000000000000000E+02
             4.60000000000000000E+02   4.70000000000000000E+02   4.80000000000000000E+02   4.90000000000000000E+02   5.00000000000000000E+02
             5.10000000000000000E+02   5.20000000000000000E+02   5.30000000000000000E+02   5.40000000000000000E+02   5.50000000000000000E+02
             5.60000000000000000E+02   5.70000000000000000E+02   5.80000000000000000E+02   5.90000000000000000E+02   6.00000000000000000E+02
             6.10000000000000000E+02   6.20000000000000000E+02   6.30000000000000000E+02   6.40000000000000000E+02   6.50000000000000000E+02
             6.60000000000000000E+02   6.70000000000000000E+02   6.80000000000000000E+02   6.90000000000000000E+02   7.00000000000000000E+02
             7.10000000000000000E+02   7.20000000000000000E+02   7.30000000000000000E+02   7.40000000000000000E+02   7.50000000000000000E+02
             7.60000000000000000E+02   7.70000000000000000E+02   7.80000000000000000E+02   7.90000000000000000E+02   8.00000000000000000E+02
             8.10000000000000000E+02   8.20000000000000000E+02   8.30000000000000000E+02   8.40000000000000000E+02   8.50000000000000000E+02
             8.60000000000000000E+02   8.70000000000000000E+02   8.80000000000000000E+02   8.90000000000000000E+02   9.00000000000000000E+02
             9.10000000000000000E+02
 ETA=   11   1.00000000000000000E+01   2.00000000000000000E+01   3.00000000000000000E+01   4.00000000000000000E+01   5.00000000000000000E+01
             6.00000000000000000E+01   7.00000000000000000E+01   8.00000000000000000E+01   9.00000000000000000E+01   1.00000000000000000E+02
             1.10000000000000000E+02   1.20000000000000000E+02   1.30000000000000000E+02   1.40000000000000000E+02   1.50000000000000000E+02
             1.60000000000000000E+02   1.70000000000000000E+02   1.80000000000000000E+02   1.90000000000000000E+02   2.00000000000000000E+02
             2.10000000000000000E+02   2.20000000000000000E+02   2.30000000000000000E+02   2.40000000000000000E+02   2.50000000000000000E+02
             2.60000000000000000E+02   2.70000000000000000E+02   2.80000000000000000E+02   2.90000000000000000E+02   3.00000000000000000E+02
             3.10000000000000000E+02   3.20000000000000000E+02   3.30000000000000000E+02   3.40000000000000000E+02   3.50000000000000000E+02
             3.60000000000000000E+02   3.70000000000000000E+02   3.80000000000000000E+02   3.90000000000000000E+02   4.00000000000000000E+02
             4.10000000000000000E+02   4.20000000000000000E+02   4.30000000000000000E+02   4.40000000000000000E+02   4.50000000000000000E+02
             4.60000000000000000E+02   4.70000000000000000E+02   4.80000000000000000E+02   4.90000000000000000E+02   5.00000000000000000E+02
             5.10000000000000000E+02   5.20000000000000000E+02   5.30000000000000000E+02   5.40000000000000000E+02   5.50000000000000000E+02
             5.60000000000000000E+02   5.70000000000000000E+02   5.80000000000000000E+02   5.90000000000000000E+02   6.00000000000000000E+02
             6.10000000000000000E+02   6.20000000000000000E+02   6.30000000000000000E+02   6.40000000000000000E+02   6.50000000000000000E+02
             6.60000000000000000E+02   6.70000000000000000E+02   6.80000000000000000E+02   6.90000000000000000E+02   7.00000000000000000E+02
             7.10000000000000000E+02   7.20000000000000000E+02   7.30000000000000000E+02   7.40000000000000000E+02   7.50000000000000000E+02
             7.60000000000000000E+02   7.70000000000000000E+02   7.80000000000000000E+02   7.90000000000000000E+02   8.00000000000000000E+02
             8.10000000000000000E+02   8.20000000000000000E+02   8.30000000000000000E+02   8.40000000000000000E+02   8.50000000000000000E+02
             8.60000000000000000E+02   8.70000000000000000E+02   8.80000000000000000E+02   8.90000000000000000E+02   9.00000000000000000E+02
             9.10000000000000000E+02
 ETA=   12   1.00000000000000000E+01   2.00000000000000000E+01   3.00000000000000000E+01   4.00000000000000000E+01   5.00000000000000000E+01
             6.00000000000000000E+01   7.00000000000000000E+01   8.00000000000000000E+01   9.00000000000000000E+01   1.00000000000000000E+02
             1.10000000000000000E+02   1.20000000000000000E+02   1.30000000000000000E+02   1.40000000000000000E+02   1.50000000000000000E+02
             1.60000000000000000E+02   1.70000000000000000E+02   1.80000000000000000E+02   1.90000000000000000E+02   2.00000000000000000E+02
             2.10000000000000000E+02   2.20000000000000000E+02   2.30000000000000000E+02   2.40000000000000000E+02   2.50000000000000000E+02
             2.60000000000000000E+02   2.70000000000000000E+02   2.80000000000000000E+02   2.90000000000000000E+02   3.00000000000000000E+02
             3.10000000000000000E+02   3.20000000000000000E+02   3.30000000000000000E+02   3.40000000000000000E+02   3.50000000000000000E+02
             3.60000000000000000E+02   3.70000000000000000E+02   3.80000000000000000E+02   3.90000000000000000E+02   4.00000000000000000E+02
             4.10000000000000000E+02   4.20000000000000000E+02   4.30000000000000000E+02   4.40000000000000000E+02   4.50000000000000000E+02
             4.60000000000000000E+02   4.70000000000000000E+02   4.80000000000000000E+02   4.90000000000000000E+02   5.00000000000000000E+02
             5.10000000000000000E+02   5.20000000000000000E+02   5.30000000000000000E+02   5.40000000000000000E+02   5.50000000000000000E+02
             5.60000000000000000E+02   5.70000000000000000E+02   5.80000000000000000E+02   5.90000000000000000E+02   6.00000000000000000E+02
             6.10000000000000000E+02   6.20000000000000000E+02   6.30000000000000000E+02   6.40000000000000000E+02   6.50000000000000000E+02
             6.60000000000000000E+02   6.70000000000000000E+02   6.80000000000000000E+02   6.90000000000000000E+02   7.00000000000000000E+02
             7.10000000000000000E+02   7.20000000000000000E+02   7.30000000000000000E+02   7.40000000000000000E+02   7.50000000000000000E+02
             7.60000000000000000E+02   7.70000000000000000E+02   7.80000000000000000E+02   7.90000000000000000E+02   8.00000000000000000E+02
             8.10000000000000000E+02   8.20000000000000000E+02   8.30000000000000000E+02   8.40000000000000000E+02   8.50000000000000000E+02
             8.60000000000000000E+02   8.70000000000000000E+02   8.80000000000000000E+02   8.90000000000000000E+02   9.00000000000000000E+02
             9.10000000000000000E+02
 ETA=   13   1.00000000000000000E+01   2.00000000000000000E+01   3.00000000000000000E+01   4.00000000000000000E+01   5.00000000000000000E+01
             6.00000000000000000E+01   7.00000000000000000E+01   8.00000000000000000E+01   9.00000000000000000E+01   1.00000000000000000E+02
             1.10000000000000000E+02   1.20000000000000000E+02   1.30000000000000000E+02   1.40000000000000000E+02   1.50000000000000000E+02
             1.60000000000000000E+02   1.70000000000000000E+02   1.80000000000000000E+02   1.90000000000000000E+02   2.00000000000000000E+02
             2.10000000000000000E+02   2.20000000000000000E+02   2.30000000000000000E+02   2.40000000000000000E+02   2.50000000000000000E+02
             2.60000000000000000E+02   2.70000000000000000E+02   2.80000000000000000E+02   2.90000000000000000E+02   3.00000000000000000E+02
             3.10000000000000000E+02   3.20000000000000000E+02   3.30000000000000000E+02   3.40000000000000000E+02   3.50000000000000000E+02
             3.60000000000000000E+02   3.70000000000000000E+02   3.80000000000000000E+02   3.90000000000000000E+02   4.00000000000000000E+02
             4.10000000000000000E+02   4.20000000000000000E+02   4.30000000000000000E+02   4.40000000000000000E+02   4.50000000000000000E+02
             4.60000000000000000E+02   4.70000000000000000E+02   4.80000000000000000E+02   4.90000000000000000E+02   5.00000000000000000E+02
             5.10000000000000000E+02   5.20000000000000000E+02   5.30000000000000000E+02   5.40000000000000000E+02   5.50000000000000000E+02
             5.60000000000000000E+02   5.70000000000000000E+02   5.80000000000000000E+02   5.90000000000000000E+02   6.00000000000000000E+02
             6.10000000000000000E+02   6.20000000000000000E+02   6.30000000000000000E+02   6.40000000000000000E+02   6.50000000000000000E+02
             6.60000000000000000E+02   6.70000000000000000E+02   6.80000000000000000E+02   6.90000000000000000E+02   7.00000000000000000E+02
             7.10000000000000000E+02   7.20000000000000000E+02   7.30000000000000000E+02   7.40000000000000000E+02   7.50000000000000000E+02
             7.60000000000000000E+02   7.70000000000000000E+02   7.80000000000000000E+02   7.90000000000000000E+02   8.00000000000000000E+02
             8.10000000000000000E+02   8.20000000000000000E+02   8.30000000000000000E+02   8.40000000000000000E+02   8.50000000000000000E+02
             8.60000000000000000E+02   8.70000000000000000E+02   8.80000000000000000E+02   8.90000000000000000E+02   9.00000000000000000E+02
             9.10000000000000000E+02
 ETA=   14   1.00000000000000000E+01   2.00000000000000000E+01   3.00000000000000000E+01   4.00000000000000000E+01   5.00000000000000000E+01
             6.00000000000000000E+01   7.00000000000000000E+01   8.00000000000000000E+01   9.00000000000000000E+01   1.00000000000000000E+02
             1.10000000000000000E+02   1.20000000000000000E+02   1.30000000000000000E+02   1.40000000000000000E+02   1.50000000000000000E+02
             1.60000000000000000E+02   1.70000000000000000E+02   1.80000000000000000E+02   1.90000000000000000E+02   2.00000000000000000E+02
             2.10000000000000000E+02   2.20000000000000000E+02   2.30000000000000000E+02   2.40000000000000000E+02   2.50000000000000000E+02
             2.60000000000000000E+02   2.70000000000000000E+02   2.80000000000000000E+02   2.90000000000000000E+02   3.00000000000000000E+02
             3.10000000000000000E+02   3.20000000000000000E+02   3.30000000000000000E+02   3.40000000000000000E+02   3.50000000000000000E+02
             3.60000000000000000E+02   3.70000000000000000E+02   3.80000000000000000E+02   3.90000000000000000E+02   4.00000000000000000E+02
             4.10000000000000000E+02   4.20000000000000000E+02   4.30000000000000000E+02   4.40000000000000000E+02   4.50000000000000000E+02
             4.60000000000000000E+02   4.70000000000000000E+02   4.80000000000000000E+02   4.90000000000000000E+02   5.00000000000000000E+02
             5.10000000000000000E+02   5.20000000000000000E+02   5.30000000000000000E+02   5.40000000000000000E+02   5.50000000000000000E+02
             5.60000000000000000E+02   5.70000000000000000E+02   5.80000000000000000E+02   5.90000000000000000E+02   6.00000000000000000E+02
             6.10000000000000000E+02   6.20000000000000000E+02   6.30000000000000000E+02   6.40000000000000000E+02   6.50000000000000000E+02
             6.60000000000000000E+02   6.70000000000000000E+02   6.80000000000000000E+02   6.90000000000000000E+02   7.00000000000000000E+02
             7.10000000000000000E+02   7.20000000000000000E+02   7.30000000000000000E+02   7.40000000000000000E+02   7.50000000000000000E+02
             7.60000000000000000E+02   7.70000000000000000E+02   7.80000000000000000E+02   7.90000000000000000E+02   8.00000000000000000E+02
             8.10000000000000000E+02   8.20000000000000000E+02   8.30000000000000000E+02   8.40000000000000000E+02   8.50000000000000000E+02
             8.60000000000000000E+02   8.70000000000000000E+02   8.80000000000000000E+02   8.90000000000000000E+02   9.00000000000000000E+02
             9.10000000000000000E+02
 ETA=   15   1.00000000000000000E+01   2.00000000000000000E+01   3.00000000000000000E+01   4.00000000000000000E+01   5.00000000000000000E+01
             6.00000000000000000E+01   7.00000000000000000E+01   8.00000000000000000E+01   9.00000000000000000E+01   1.00000000000000000E+02
             1.10000000000000000E+02   1.20000000000000000E+02   1.30000000000000000E+02   1.40000000000000000E+02   1.50000000000000000E+02
             1.60000000000000000E+02   1.70000000000000000E+02   1.80000000000000000E+02   1.90000000000000000E+02   2.00000000000000000E+02
             2.10000000000000000E+02   2.20000000000000000E+02   2.30000000000000000E+02   2.40000000000000000E+02   2.50000000000000000E+02
             2.60000000000000000E+02   2.70000000000000000E+02   2.80000000000000000E+02   2.90000000000000000E+02   3.00000000000000000E+02
             3.10000000000000000E+02   3.20000000000000000E+02   3.30000000000000000E+02   3.40000000000000000E+02   3.50000000000000000E+02
             3.60000000000000000E+02   3.70000000000000000E+02   3.80000000000000000E+02   3.90000000000000000E+02   4.00000000000000000E+02
             4.10000000000000000E+02   4.20000000000000000E+02   4.30000000000000000E+02   4.40000000000000000E+02   4.50000000000000000E+02
             4.60000000000000000E+02   4.70000000000000000E+02   4.80000000000000000E+02   4.90000000000000000E+02   5.00000000000000000E+02
             5.10000000000000000E+02   5.20000000000000000E+02   5.30000000000000000E+02   5.40000000000000000E+02   5.50000000000000000E+02
             5.60000000000000000E+02   5.70000000000000000E+02   5.80000000000000000E+02   5.90000000000000000E+02   6.00000000000000000E+02
             6.10000000000000000E+02   6.20000000000000000E+02   6.30000000000000000E+02   6.40000000000000000E+02   6.50000000000000000E+02
             6.60000000000000000E+02   6.70000000000000000E+02   6.80000000000000000E+02   6.90000000000000000E+02   7.00000000000000000E+02
             7.10000000000000000E+02   7.20000000000000000E+02   7.30000000000000000E+02   7.40000000000000000E+02   7.50000000000000000E+02
             7.60000000000000000E+02   7.70000000000000000E+02   7.80000000000000000E+02   7.90000000000000000E+02   8.00000000000000000E+02
             8.10000000000000000E+02   8.20000000000000000E+02   8.30000000000000000E+02   8.40000000000000000E+02   8.50000000000000000E+02
             8.60000000000000000E+02   8.70000000000000000E+02   8.80000000000000000E+02   8.90000000000000000E+02   9.00000000000000000E+02
             9.10000000000000000E+02
 ETA=   16   1.00000000000000000E+01   2.00000000000000000E+01   3.00000000000000000E+01   4.00000000000000000E+01   5.00000000000000000E+01
             6.00000000000000000E+01   7.00000000000000000E+01   8.00000000000000000E+01   9.00000000000000000E+01   1.00000000000000000E+02
             1.10000000000000000E+02   1.20000000000000000E+02   1.30000000000000000E+02   1.40000000000000000E+02   1.50000000000000000E+02
             1.60000000000000000E+02   1.70000000000000000E+02   1.80000000000000000E+02   1.90000000000000000E+02   2.00000000000000000E+02
             2.10000000000000000E+02   2.20000000000000000E+02   2.30000000000000000E+02   2.40000000000000000E+02   2.50000000000000000E+02
             2.60000000000000000E+02   2.70000000000000000E+02   2.80000000000000000E+02   2.90000000000000000E+02   3.00000000000000000E+02
             3.10000000000000000E+02   3.20000000000000000E+02   3.30000000000000000E+02   3.40000000000000000E+02   3.50000000000000000E+02
             3.60000000000000000E+02   3.70000000000000000E+02   3.80000000000000000E+02   3.90000000000000000E+02   4.00000000000000000E+02
             4.10000000000000000E+02   4.20000000000000000E+02   4.30000000000000000E+02   4.40000000000000000E+02   4.50000000000000000E+02
             4.60000000000000000E+02   4.70000000000000000E+02   4.80000000000000000E+02   4.90000000000000000E+02   5.00000000000000000E+02
             5.10000000000000000E+02   5.20000000000000000E+02   5.30000000000000000E+02   5.40000000000000000E+02   5.50000000000000000E+02
             5.60000000000000000E+02   5.70000000000000000E+02   5.80000000000000000E+02   5.90000000000000000E+02   6.00000000000000000E+02
             6.10000000000000000E+02   6.20000000000000000E+02   6.30000000000000000E+02   6.40000000000000000E+02   6.50000000000000000E+02
             6.60000000000000000E+02   6.70000000000000000E+02   6.80000000000000000E+02   6.90000000000000000E+02   7.00000000000000000E+02
             7.10000000000000000E+02   7.20000000000000000E+02   7.30000000000000000E+02   7.40000000000000000E+02   7.50000000000000000E+02
             7.60000000000000000E+02   7.70000000000000000E+02   7.80000000000000000E+02   7.90000000000000000E+02   8.00000000000000000E+02
             8.10000000000000000E+02   8.20000000000000000E+02   8.30000000000000000E+02   8.40000000000000000E+02   8.50000000000000000E+02
             8.60000000000000000E+02   8.70000000000000000E+02   8.80000000000000000E+02   8.90000000000000000E+02   9.00000000000000000E+02
             9.10000000000000000E+02
 ETA=   17   1.00000000000000000E+01   2.00000000000000000E+01   3.00000000000000000E+01   4.00000000000000000E+01   5.00000000000000000E+01
             6.00000000000000000E+01   7.00000000000000000E+01   8.00000000000000000E+01   9.00000000000000000E+01   1.00000000000000000E+02
             1.10000000000000000E+02   1.20000000000000000E+02   1.30000000000000000E+02   1.40000000000000000E+02   1.50000000000000000E+02
             1.60000000000000000E+02   1.70000000000000000E+02   1.80000000000000000E+02   1.90000000000000000E+02   2.00000000000000000E+02
             2.10000000000000000E+02   2.20000000000000000E+02   2.30000000000000000E+02   2.40000000000000000E+02   2.50000000000000000E+02
             2.60000000000000000E+02   2.70000000000000000E+02   2.80000000000000000E+02   2.90000000000000000E+02   3.00000000000000000E+02
             3.10000000000000000E+02   3.20000000000000000E+02   3.30000000000000000E+02   3.40000000000000000E+02   3.50000000000000000E+02
             3.60000000000000000E+02   3.70000000000000000E+02   3.80000000000000000E+02   3.90000000000000000E+02   4.00000000000000000E+02
             4.10000000000000000E+02   4.20000000000000000E+02   4.30000000000000000E+02   4.40000000000000000E+02   4.50000000000000000E+02
             4.60000000000000000E+02   4.70000000000000000E+02   4.80000000000000000E+02   4.90000000000000000E+02   5.00000000000000000E+02
             5.10000000000000000E+02   5.20000000000000000E+02   5.30000000000000000E+02   5.40000000000000000E+02   5.50000000000000000E+02
             5.60000000000000000E+02   5.70000000000000000E+02   5.80000000000000000E+02   5.90000000000000000E+02   6.00000000000000000E+02
             6.10000000000000000E+02   6.20000000000000000E+02   6.30000000000000000E+02   6.40000000000000000E+02   6.50000000000000000E+02
             6.60000000000000000E+02   6.70000000000000000E+02   6.80000000000000000E+02   6.90000000000000000E+02   7.00000000000000000E+02
             7.10000000000000000E+02   7.20000000000000000E+02   7.30000000000000000E+02   7.40000000000000000E+02   7.50000000000000000E+02
             7.60000000000000000E+02   7.70000000000000000E+02   7.80000000000000000E+02   7.90000000000000000E+02   8.00000000000000000E+02
             8.10000000000000000E+02   8.20000000000000000E+02   8.30000000000000000E+02   8.40000000000000000E+02   8.50000000000000000E+02
             8.60000000000000000E+02   8.70000000000000000E+02   8.80000000000000000E+02   8.90000000000000000E+02   9.00000000000000000E+02
             9.10000000000000000E+02
 ETA=   18   1.00000000000000000E+01   2.00000000000000000E+01   3.00000000000000000E+01   4.00000000000000000E+01   5.00000000000000000E+01
             6.00000000000000000E+01   7.00000000000000000E+01   8.00000000000000000E+01   9.00000000000000000E+01   1.00000000000000000E+02
             1.10000000000000000E+02   1.20000000000000000E+02   1.30000000000000000E+02   1.40000000000000000E+02   1.50000000000000000E+02
             1.60000000000000000E+02   1.70000000000000000E+02   1.80000000000000000E+02   1.90000000000000000E+02   2.00000000000000000E+02
             2.10000000000000000E+02   2.20000000000000000E+02   2.30000000000000000E+02   2.40000000000000000E+02   2.50000000000000000E+02
             2.60000000000000000E+02   2.70000000000000000E+02   2.80000000000000000E+02   2.90000000000000000E+02   3.00000000000000000E+02
             3.10000000000000000E+02   3.20000000000000000E+02   3.30000000000000000E+02   3.40000000000000000E+02   3.50000000000000000E+02
             3.60000000000000000E+02   3.70000000000000000E+02   3.80000000000000000E+02   3.90000000000000000E+02   4.00000000000000000E+02
             4.10000000000000000E+02   4.20000000000000000E+02   4.30000000000000000E+02   4.40000000000000000E+02   4.50000000000000000E+02
             4.60000000000000000E+02   4.70000000000000000E+02   4.80000000000000000E+02   4.90000000000000000E+02   5.00000000000000000E+02
             5.10000000000000000E+02   5.20000000000000000E+02   5.30000000000000000E+02   5.40000000000000000E+02   5.50000000000000000E+02
             5.60000000000000000E+02   5.70000000000000000E+02   5.80000000000000000E+02   5.90000000000000000E+02   6.00000000000000000E+02
             6.10000000000000000E+02   6.20000000000000000E+02   6.30000000000000000E+02   6.40000000000000000E+02   6.50000000000000000E+02
             6.60000000000000000E+02   6.70000000000000000E+02   6.80000000000000000E+02   6.90000000000000000E+02   7.00000000000000000E+02
             7.10000000000000000E+02   7.20000000000000000E+02   7.30000000000000000E+02   7.40000000000000000E+02   7.50000000000000000E+02
             7.60000000000000000E+02   7.70000000000000000E+02   7.80000000000000000E+02   7.90000000000000000E+02   8.00000000000000000E+02
             8.10000000000000000E+02   8.20000000000000000E+02   8.30000000000000000E+02   8.40000000000000000E+02   8.50000000000000000E+02
             8.60000000000000000E+02   8.70000000000000000E+02   8.80000000000000000E+02   8.90000000000000000E+02   9.00000000000000000E+02
             9.10000000000000000E+02
 ETA=   19   1.00000000000000000E+01   2.00000000000000000E+01   3.00000000000000000E+01   4.00000000000000000E+01   5.00000000000000000E+01
             6.00000000000000000E+01   7.00000000000000000E+01   8.00000000000000000E+01   9.00000000000000000E+01   1.00000000000000000E+02
             1.10000000000000000E+02   1.20000000000000000E+02   1.30000000000000000E+02   1.40000000000000000E+02   1.50000000000000000E+02
             1.60000000000000000E+02   1.70000000000000000E+02   1.80000000000000000E+02   1.90000000000000000E+02   2.00000000000000000E+02
             2.10000000000000000E+02   2.20000000000000000E+02   2.30000000000000000E+02   2.40000000000000000E+02   2.50000000000000000E+02
             2.60000000000000000E+02   2.70000000000000000E+02   2.80000000000000000E+02   2.90000000000000000E+02   3.00000000000000000E+02
             3.10000000000000000E+02   3.20000000000000000E+02   3.30000000000000000E+02   3.40000000000000000E+02   3.50000000000000000E+02
             3.60000000000000000E+02   3.70000000000000000E+02   3.80000000000000000E+02   3.90000000000000000E+02   4.00000000000000000E+02
             4.10000000000000000E+02   4.20000000000000000E+02   4.30000000000000000E+02   4.40000000000000000E+02   4.50000000000000000E+02
             4.60000000000000000E+02   4.70000000000000000E+02   4.80000000000000000E+02   4.90000000000000000E+02   5.00000000000000000E+02
             5.10000000000000000E+02   5.20000000000000000E+02   5.30000000000000000E+02   5.40000000000000000E+02   5.50000000000000000E+02
             5.60000000000000000E+02   5.70000000000000000E+02   5.80000000000000000E+02   5.90000000000000000E+02   6.00000000000000000E+02
             6.10000000000000000E+02   6.20000000000000000E+02   6.30000000000000000E+02   6.40000000000000000E+02   6.50000000000000000E+02
             6.60000000000000000E+02   6.70000000000000000E+02   6.80000000000000000E+02   6.90000000000000000E+02   7.00000000000000000E+02
             7.10000000000000000E+02   7.20000000000000000E+02   7.30000000000000000E+02   7.40000000000000000E+02   7.50000000000000000E+02
             7.60000000000000000E+02   7.70000000000000000E+02   7.80000000000000000E+02   7.90000000000000000E+02   8.00000000000000000E+02
             8.10000000000000000E+02   8.20000000000000000E+02   8.30000000000000000E+02   8.40000000000000000E+02   8.50000000000000000E+02
             8.60000000000000000E+02   8.70000000000000000E+02   8.80000000000000000E+02   8.90000000000000000E+02   9.00000000000000000E+02
             9.10000000000000000E+02
 ETA=   20   1.00000000000000000E+01   2.00000000000000000E+01   3.00000000000000000E+01   4.00000000000000000E+01   5.00000000000000000E+01
             6.00000000000000000E+01   7.00000000000000000E+01   8.00000000000000000E+01   9.00000000000000000E+01   1.00000000000000000E+02
             1.10000000000000000E+02   1.20000000000000000E+02   1.30000000000000000E+02   1.40000000000000000E+02   1.50000000000000000E+02
             1.60000000000000000E+02   1.70000000000000000E+02   1.80000000000000000E+02   1.90000000000000000E+02   2.00000000000000000E+02
             2.10000000000000000E+02   2.20000000000000000E+02   2.30000000000000000E+02   2.40000000000000000E+02   2.50000000000000000E+02
             2.60000000000000000E+02   2.70000000000000000E+02   2.80000000000000000E+02   2.90000000000000000E+02   3.00000000000000000E+02
             3.10000000000000000E+02   3.20000000000000000E+02   3.30000000000000000E+02   3.40000000000000000E+02   3.50000000000000000E+02
             3.60000000000000000E+02   3.70000000000000000E+02   3.80000000000000000E+02   3.90000000000000000E+02   4.00000000000000000E+02
             4.10000000000000000E+02   4.20000000000000000E+02   4.30000000000000000E+02   4.40000000000000000E+02   4.50000000000000000E+02
             4.60000000000000000E+02   4.70000000000000000E+02   4.80000000000000000E+02   4.90000000000000000E+02   5.00000000000000000E+02
             5.10000000000000000E+02   5.20000000000000000E+02   5.30000000000000000E+02   5.40000000000000000E+02   5.50000000000000000E+02
             5.60000000000000000E+02   5.70000000000000000E+02   5.80000000000000000E+02   5.90000000000000000E+02   6.00000000000000000E+02
             6.10000000000000000E+02   6.20000000000000000E+02   6.30000000000000000E+02   6.40000000000000000E+02   6.50000000000000000E+02
             6.60000000000000000E+02   6.70000000000000000E+02   6.80000000000000000E+02   6.90000000000000000E+02   7.00000000000000000E+02
             7.10000000000000000E+02   7.20000000000000000E+02   7.30000000000000000E+02   7.40000000000000000E+02   7.50000000000000000E+02
             7.60000000000000000E+02   7.70000000000000000E+02   7.80000000000000000E+02   7.90000000000000000E+02   8.00000000000000000E+02
             8.10000000000000000E+02   8.20000000000000000E+02   8.30000000000000000E+02   8.40000000000000000E+02   8.50000000000000000E+02
             8.60000000000000000E+02   8.70000000000000000E+02   8.80000000000000000E+02   8.90000000000000000E+02   9.00000000000000000E+02
             9.10000000000000000E+02
 ETA=   21   1.00000000000000000E+01   2.00000000000000000E+01   3.00000000000000000E+01   4.00000000000000000E+01   5.00000000000000000E+01
             6.00000000000000000E+01   7.00000000000000000E+01   8.00000000000000000E+01   9.00000000000000000E+01   1.00000000000000000E+02
             1.10000000000000000E+02   1.20000000000000000E+02   1.30000000000000000E+02   1.40000000000000000E+02   1.50000000000000000E+02
             1.60000000000000000E+02   1.70000000000000000E+02   1.80000000000000000E+02   1.90000000000000000E+02   2.00000000000000000E+02
             2.10000000000000000E+02   2.20000000000000000E+02   2.30000000000000000E+02   2.40000000000000000E+02   2.50000000000000000E+02
             2.60000000000000000E+02   2.70000000000000000E+02   2.80000000000000000E+02   2.90000000000000000E+02   3.00000000000000000E+02
             3.10000000000000000E+02   3.20000000000000000E+02   3.30000000000000000E+02   3.40000000000000000E+02   3.50000000000000000E+02
             3.60000000000000000E+02   3.70000000000000000E+02   3.80000000000000000E+02   3.90000000000000000E+02   4.00000000000000000E+02
             4.10000000000000000E+02   4.20000000000000000E+02   4.30000000000000000E+02   4.40000000000000000E+02   4.50000000000000000E+02
             4.60000000000000000E+02   4.70000000000000000E+02   4.80000000000000000E+02   4.90000000000000000E+02   5.00000000000000000E+02
             5.10000000000000000E+02   5.20000000000000000E+02   5.30000000000000000E+02   5.40000000000000000E+02   5.50000000000000000E+02
             5.60000000000000000E+02   5.70000000000000000E+02   5.80000000000000000E+02   5.90000000000000000E+02   6.00000000000000000E+02
             6.10000000000000000E+02   6.20000000000000000E+02   6.30000000000000000E+02   6.40000000000000000E+02   6.50000000000000000E+02
             6.60000000000000000E+02   6.70000000000000000E+02   6.80000000000000000E+02   6.90000000000000000E+02   7.00000000000000000E+02
             7.10000000000000000E+02   7.20000000000000000E+02   7.30000000000000000E+02   7.40000000000000000E+02   7.50000000000000000E+02
             7.60000000000000000E+02   7.70000000000000000E+02   7.80000000000000000E+02   7.90000000000000000E+02   8.00000000000000000E+02
             8.10000000000000000E+02   8.20000000000000000E+02   8.30000000000000000E+02   8.40000000000000000E+02   8.50000000000000000E+02
             8.60000000000000000E+02   8.70000000000000000E+02   8.80000000000000000E+02   8.90000000000000000E+02   9.00000000000000000E+02
             9.10000000000000000E+02
 ETA=   22   1.00000000000000000E+01   2.00000000000000000E+01   3.00000000000000000E+01   4.00000000000000000E+01   5.00000000000000000E+01
             6.00000000000000000E+01   7.00000000000000000E+01   8.00000000000000000E+01   9.00000000000000000E+01   1.00000000000000000E+02
             1.10000000000000000E+02   1.20000000000000000E+02   1.30000000000000000E+02   1.40000000000000000E+02   1.50000000000000000E+02
             1.60000000000000000E+02   1.70000000000000000E+02   1.80000000000000000E+02   1.90000000000000000E+02   2.00000000000000000E+02
             2.10000000000000000E+02   2.20000000000000000E+02   2.30000000000000000E+02   2.40000000000000000E+02   2.50000000000000000E+02
             2.60000000000000000E+02   2.70000000000000000E+02   2.80000000000000000E+02   2.90000000000000000E+02   3.00000000000000000E+02
             3.10000000000000000E+02   3.20000000000000000E+02   3.30000000000000000E+02   3.40000000000000000E+02   3.50000000000000000E+02
             3.60000000000000000E+02   3.70000000000000000E+02   3.80000000000000000E+02   3.90000000000000000E+02   4.00000000000000000E+02
             4.10000000000000000E+02   4.20000000000000000E+02   4.30000000000000000E+02   4.40000000000000000E+02   4.50000000000000000E+02
             4.60000000000000000E+02   4.70000000000000000E+02   4.80000000000000000E+02   4.90000000000000000E+02   5.00000000000000000E+02
             5.10000000000000000E+02   5.20000000000000000E+02   5.30000000000000000E+02   5.40000000000000000E+02   5.50000000000000000E+02
             5.60000000000000000E+02   5.70000000000000000E+02   5.80000000000000000E+02   5.90000000000000000E+02   6.00000000000000000E+02
             6.10000000000000000E+02   6.20000000000000000E+02   6.30000000000000000E+02   6.40000000000000000E+02   6.50000000000000000E+02
             6.60000000000000000E+02   6.70000000000000000E+02   6.80000000000000000E+02   6.90000000000000000E+02   7.00000000000000000E+02
             7.10000000000000000E+02   7.20000000000000000E+02   7.30000000000000000E+02   7.40000000000000000E+02   7.50000000000000000E+02
             7.60000000000000000E+02   7.70000000000000000E+02   7.80000000000000000E+02   7.90000000000000000E+02   8.00000000000000000E+02
             8.10000000000000000E+02   8.20000000000000000E+02   8.30000000000000000E+02   8.40000000000000000E+02   8.50000000000000000E+02
             8.60000000000000000E+02   8.70000000000000000E+02   8.80000000000000000E+02   8.90000000000000000E+02   9.00000000000000000E+02
             9.10000000000000000E+02
 ETA=   23   1.00000000000000000E+01   2.00000000000000000E+01   3.00000000000000000E+01   4.00000000000000000E+01   5.00000000000000000E+01
             6.00000000000000000E+01   7.00000000000000000E+01   8.00000000000000000E+01   9.00000000000000000E+01   1.00000000000000000E+02
             1.10000000000000000E+02   1.20000000000000000E+02   1.30000000000000000E+02   1.40000000000000000E+02   1.50000000000000000E+02
             1.60000000000000000E+02   1.70000000000000000E+02   1.80000000000000000E+02   1.90000000000000000E+02   2.00000000000000000E+02
             2.10000000000000000E+02   2.20000000000000000E+02   2.30000000000000000E+02   2.40000000000000000E+02   2.50000000000000000E+02
             2.60000000000000000E+02   2.70000000000000000E+02   2.80000000000000000E+02   2.90000000000000000E+02   3.00000000000000000E+02
             3.10000000000000000E+02   3.20000000000000000E+02   3.30000000000000000E+02   3.40000000000000000E+02   3.50000000000000000E+02
             3.60000000000000000E+02   3.70000000000000000E+02   3.80000000000000000E+02   3.90000000000000000E+02   4.00000000000000000E+02
             4.10000000000000000E+02   4.20000000000000000E+02   4.30000000000000000E+02   4.40000000000000000E+02   4.50000000000000000E+02
             4.60000000000000000E+02   4.70000000000000000E+02   4.80000000000000000E+02   4.90000000000000000E+02   5.00000000000000000E+02
             5.10000000000000000E+02   5.20000000000000000E+02   5.30000000000000000E+02   5.40000000000000000E+02   5.50000000000000000E+02
             5.60000000000000000E+02   5.70000000000000000E+02   5.80000000000000000E+02   5.90000000000000000E+02   6.00000000000000000E+02
             6.10000000000000000E+02   6.20000000000000000E+02   6.30000000000000000E+02   6.40000000000000000E+02   6.50000000000000000E+02
             6.60000000000000000E+02   6.70000000000000000E+02   6.80000000000000000E+02   6.90000000000000000E+02   7.00000000000000000E+02
             7.10000000000000000E+02   7.20000000000000000E+02   7.30000000000000000E+02   7.40000000000000000E+02   7.50000000000000000E+02
             7.60000000000000000E+02   7.70000000000000000E+02   7.80000000000000000E+02   7.90000000000000000E+02   8.00000000000000000E+02
             8.10000000000000000E+02   8.20000000000000000E+02   8.30000000000000000E+02   8.40000000000000000E+02   8.50000000000000000E+02
             8.60000000000000000E+02   8.70000000000000000E+02   8.80000000000000000E+02   8.90000000000000000E+02   9.00000000000000000E+02
             9.10000000000000000E+02
 ETA=   24   1.00000000000000000E+01   2.00000000000000000E+01   3.00000000000000000E+01   4.00000000000000000E+01   5.00000000000000000E+01
             6.00000000000000000E+01   7.00000000000000000E+01   8.00000000000000000E+01   9.00000000000000000E+01   1.00000000000000000E+02
             1.10000000000000000E+02   1.20000000000000000E+02   1.30000000000000000E+02   1.40000000000000000E+02   1.50000000000000000E+02
             1.60000000000000000E+02   1.70000000000000000E+02   1.80000000000000000E+02   1.90000000000000000E+02   2.00000000000000000E+02
             2.10000000000000000E+02   2.20000000000000000E+02   2.30000000000000000E+02   2.40000000000000000E+02   2.50000000000000000E+02
             2.60000000000000000E+02   2.70000000000000000E+02   2.80000000000000000E+02   2.90000000000000000E+02   3.00000000000000000E+02
             3.10000000000000000E+02   3.20000000000000000E+02   3.30000000000000000E+02   3.40000000000000000E+02   3.50000000000000000E+02
             3.60000000000000000E+02   3.70000000000000000E+02   3.80000000000000000E+02   3.90000000000000000E+02   4.00000000000000000E+02
             4.10000000000000000E+02   4.20000000000000000E+02   4.30000000000000000E+02   4.40000000000000000E+02   4.50000000000000000E+02
             4.60000000000000000E+02   4.70000000000000000E+02   4.80000000000000000E+02   4.90000000000000000E+02   5.00000000000000000E+02
             5.10000000000000000E+02   5.20000000000000000E+02   5.30000000000000000E+02   5.40000000000000000E+02   5.50000000000000000E+02
             5.60000000000000000E+02   5.70000000000000000E+02   5.80000000000000000E+02   5.90000000000000000E+02   6.00000000000000000E+02
             6.10000000000000000E+02   6.20000000000000000E+02   6.30000000000000000E+02   6.40000000000000000E+02   6.50000000000000000E+02
             6.60000000000000000E+02   6.70000000000000000E+02   6.80000000000000000E+02   6.90000000000000000E+02   7.00000000000000000E+02
             7.10000000000000000E+02   7.20000000000000000E+02   7.30000000000000000E+02   7.40000000000000000E+02   7.50000000000000000E+02
             7.60000000000000000E+02   7.70000000000000000E+02   7.80000000000000000E+02   7.90000000000000000E+02   8.00000000000000000E+02
             8.10000000000000000E+02   8.20000000000000000E+02   8.30000000000000000E+02   8.40000000000000000E+02   8.50000000000000000E+02
             8.60000000000000000E+02   8.70000000000000000E+02   8.80000000000000000E+02   8.90000000000000000E+02   9.00000000000000000E+02
             9.10000000000000000E+02
 ETA=   25   1.00000000000000000E+01   2.00000000000000000E+01   3.00000000000000000E+01   4.00000000000000000E+01   5.00000000000000000E+01
             6.00000000000000000E+01   7.00000000000000000E+01   8.00000000000000000E+01   9.00000000000000000E+01   1.00000000000000000E+02
             1.10000000000000000E+02   1.20000000000000000E+02   1.30000000000000000E+02   1.40000000000000000E+02   1.50000000000000000E+02
             1.60000000000000000E+02   1.70000000000000000E+02   1.80000000000000000E+02   1.90000000000000000E+02   2.00000000000000000E+02
             2.10000000000000000E+02   2.20000000000000000E+02   2.30000000000000000E+02   2.40000000000000000E+02   2.50000000000000000E+02
             2.60000000000000000E+02   2.70000000000000000E+02   2.80000000000000000E+02   2.90000000000000000E+02   3.00000000000000000E+02
             3.10000000000000000E+02   3.20000000000000000E+02   3.30000000000000000E+02   3.40000000000000000E+02   3.50000000000000000E+02
             3.60000000000000000E+02   3.70000000000000000E+02   3.80000000000000000E+02   3.90000000000000000E+02   4.00000000000000000E+02
             4.10000000000000000E+02   4.20000000000000000E+02   4.30000000000000000E+02   4.40000000000000000E+02   4.50000000000000000E+02
             4.60000000000000000E+02   4.70000000000000000E+02   4.80000000000000000E+02   4.90000000000000000E+02   5.00000000000000000E+02
             5.10000000000000000E+02   5.20000000000000000E+02   5.30000000000000000E+02   5.40000000000000000E+02   5.50000000000000000E+02
             5.60000000000000000E+02   5.70000000000000000E+02   5.80000000000000000E+02   5.90000000000000000E+02   6.00000000000000000E+02
             6.10000000000000000E+02   6.20000000000000000E+02   6.30000000000000000E+02   6.40000000000000000E+02   6.50000000000000000E+02
             6.60000000000000000E+02   6.70000000000000000E+02   6.80000000000000000E+02   6.90000000000000000E+02   7.00000000000000000E+02
             7.10000000000000000E+02   7.20000000000000000E+02   7.30000000000000000E+02   7.40000000000000000E+02   7.50000000000000000E+02
             7.60000000000000000E+02   7.70000000000000000E+02   7.80000000000000000E+02   7.90000000000000000E+02   8.00000000000000000E+02
             8.10000000000000000E+02   8.20000000000000000E+02   8.30000000000000000E+02   8.40000000000000000E+02   8.50000000000000000E+02
             8.60000000000000000E+02   8.70000000000000000E+02   8.80000000000000000E+02   8.90000000000000000E+02   9.00000000000000000E+02
             9.10000000000000000E+02
 ETA=   26   1.00000000000000000E+01   2.00000000000000000E+01   3.00000000000000000E+01   4.00000000000000000E+01   5.00000000000000000E+01
             6.00000000000000000E+01   7.00000000000000000E+01   8.00000000000000000E+01   9.00000000000000000E+01   1.00000000000000000E+02
             1.10000000000000000E+02   1.20000000000000000E+02   1.30000000000000000E+02   1.40000000000000000E+02   1.50000000000000000E+02
             1.60000000000000000E+02   1.70000000000000000E+02   1.80000000000000000E+02   1.90000000000000000E+02   2.00000000000000000E+02
             2.10000000000000000E+02   2.20000000000000000E+02   2.30000000000000000E+02   2.40000000000000000E+02   2.50000000000000000E+02
             2.60000000000000000E+02   2.70000000000000000E+02   2.80000000000000000E+02   2.90000000000000000E+02   3.00000000000000000E+02
             3.10000000000000000E+02   3.20000000000000000E+02   3.30000000000000000E+02   3.40000000000000000E+02   3.50000000000000000E+02
             3.60000000000000000E+02   3.70000000000000000E+02   3.80000000000000000E+02   3.90000000000000000E+02   4.00000000000000000E+02
             4.10000000000000000E+02   4.20000000000000000E+02   4.30000000000000000E+02   4.40000000000000000E+02   4.50000000000000000E+02
             4.60000000000000000E+02   4.70000000000000000E+02   4.80000000000000000E+02   4.90000000000000000E+02   5.00000000000000000E+02
             5.10000000000000000E+02   5.20000000000000000E+02   5.30000000000000000E+02   5.40000000000000000E+02   5.50000000000000000E+02
             5.60000000000000000E+02   5.70000000000000000E+02   5.80000000000000000E+02   5.90000000000000000E+02   6.00000000000000000E+02
             6.10000000000000000E+02   6.20000000000000000E+02   6.30000000000000000E+02   6.40000000000000000E+02   6.50000000000000000E+02
             6.60000000000000000E+02   6.70000000000000000E+02   6.80000000000000000E+02   6.90000000000000000E+02   7.00000000000000000E+02
             7.10000000000000000E+02   7.20000000000000000E+02   7.30000000000000000E+02   7.40000000000000000E+02   7.50000000000000000E+02
             7.60000000000000000E+02   7.70000000000000000E+02   7.80000000000000000E+02   7.90000000000000000E+02   8.00000000000000000E+02
             8.10000000000000000E+02   8.20000000000000000E+02   8.30000000000000000E+02   8.40000000000000000E+02   8.50000000000000000E+02
             8.60000000000000000E+02   8.70000000000000000E+02   8.80000000000000000E+02   8.90000000000000000E+02   9.00000000000000000E+02
             9.10000000000000000E+02
 ETA=   27   1.00000000000000000E+01   2.00000000000000000E+01   3.00000000000000000E+01   4.00000000000000000E+01   5.00000000000000000E+01
             6.00000000000000000E+01   7.00000000000000000E+01   8.00000000000000000E+01   9.00000000000000000E+01   1.00000000000000000E+02
             1.10000000000000000E+02   1.20000000000000000E+02   1.30000000000000000E+02   1.40000000000000000E+02   1.50000000000000000E+02
             1.60000000000000000E+02   1.70000000000000000E+02   1.80000000000000000E+02   1.90000000000000000E+02   2.00000000000000000E+02
             2.10000000000000000E+02   2.20000000000000000E+02   2.30000000000000000E+02   2.40000000000000000E+02   2.50000000000000000E+02
             2.60000000000000000E+02   2.70000000000000000E+02   2.80000000000000000E+02   2.90000000000000000E+02   3.00000000000000000E+02
             3.10000000000000000E+02   3.20000000000000000E+02   3.30000000000000000E+02   3.40000000000000000E+02   3.50000000000000000E+02
             3.60000000000000000E+02   3.70000000000000000E+02   3.80000000000000000E+02   3.90000000000000000E+02   4.00000000000000000E+02
             4.10000000000000000E+02   4.20000000000000000E+02   4.30000000000000000E+02   4.40000000000000000E+02   4.50000000000000000E+02
             4.60000000000000000E+02   4.70000000000000000E+02   4.80000000000000000E+02   4.90000000000000000E+02   5.00000000000000000E+02
             5.10000000000000000E+02   5.20000000000000000E+02   5.30000000000000000E+02   5.40000000000000000E+02   5.50000000000000000E+02
             5.60000000000000000E+02   5.70000000000000000E+02   5.80000000000000000E+02   5.90000000000000000E+02   6.00000000000000000E+02
             6.10000000000000000E+02   6.20000000000000000E+02   6.30000000000000000E+02   6.40000000000000000E+02   6.50000000000000000E+02
             6.60000000000000000E+02   6.70000000000000000E+02   6.80000000000000000E+02   6.90000000000000000E+02   7.00000000000000000E+02
             7.10000000000000000E+02   7.20000000000000000E+02   7.30000000000000000E+02   7.40000000000000000E+02   7.50000000000000000E+02
             7.60000000000000000E+02   7.70000000000000000E+02   7.80000000000000000E+02   7.90000000000000000E+02   8.00000000000000000E+02
             8.10000000000000000E+02   8.20000000000000000E+02   8.30000000000000000E+02   8.40000000000000000E+02   8.50000000000000000E+02
             8.60000000000000000E+02   8.70000000000000000E+02   8.80000000000000000E+02   8.90000000000000000E+02   9.00000000000000000E+02
             9.10000000000000000E+02
 ETA=   28   1.00000000000000000E+01   2.00000000000000000E+01   3.00000000000000000E+01   4.00000000000000000E+01   5.00000000000000000E+01
             6.00000000000000000E+01   7.00000000000000000E+01   8.00000000000000000E+01   9.00000000000000000E+01   1.00000000000000000E+02
             1.10000000000000000E+02   1.20000000000000000E+02   1.30000000000000000E+02   1.40000000000000000E+02   1.50000000000000000E+02
             1.60000000000000000E+02   1.70000000000000000E+02   1.80000000000000000E+02   1.90000000000000000E+02   2.00000000000000000E+02
             2.10000000000000000E+02   2.20000000000000000E+02   2.30000000000000000E+02   2.40000000000000000E+02   2.50000000000000000E+02
             2.60000000000000000E+02   2.70000000000000000E+02   2.80000000000000000E+02   2.90000000000000000E+02   3.00000000000000000E+02
             3.10000000000000000E+02   3.20000000000000000E+02   3.30000000000000000E+02   3.40000000000000000E+02   3.50000000000000000E+02
             3.60000000000000000E+02   3.70000000000000000E+02   3.80000000000000000E+02   3.90000000000000000E+02   4.00000000000000000E+02
             4.10000000000000000E+02   4.20000000000000000E+02   4.30000000000000000E+02   4.40000000000000000E+02   4.50000000000000000E+02
             4.60000000000000000E+02   4.70000000000000000E+02   4.80000000000000000E+02   4.90000000000000000E+02   5.00000000000000000E+02
             5.10000000000000000E+02   5.20000000000000000E+02   5.30000000000000000E+02   5.40000000000000000E+02   5.50000000000000000E+02
             5.60000000000000000E+02   5.70000000000000000E+02   5.80000000000000000E+02   5.90000000000000000E+02   6.00000000000000000E+02
             6.10000000000000000E+02   6.20000000000000000E+02   6.30000000000000000E+02   6.40000000000000000E+02   6.50000000000000000E+02
             6.60000000000000000E+02   6.70000000000000000E+02   6.80000000000000000E+02   6.90000000000000000E+02   7.00000000000000000E+02
             7.10000000000000000E+02   7.20000000000000000E+02   7.30000000000000000E+02   7.40000000000000000E+02   7.50000000000000000E+02
             7.60000000000000000E+02   7.70000000000000000E+02   7.80000000000000000E+02   7.90000000000000000E+02   8.00000000000000000E+02
             8.10000000000000000E+02   8.20000000000000000E+02   8.30000000000000000E+02   8.40000000000000000E+02   8.50000000000000000E+02
             8.60000000000000000E+02   8.70000000000000000E+02   8.80000000000000000E+02   8.90000000000000000E+02   9.00000000000000000E+02
             9.10000000000000000E+02
 ETA=   29   1.00000000000000000E+01   2.00000000000000000E+01   3.00000000000000000E+01   4.00000000000000000E+01   5.00000000000000000E+01
             6.00000000000000000E+01   7.00000000000000000E+01   8.00000000000000000E+01   9.00000000000000000E+01   1.00000000000000000E+02
             1.10000000000000000E+02   1.20000000000000000E+02   1.30000000000000000E+02   1.40000000000000000E+02   1.50000000000000000E+02
             1.60000000000000000E+02   1.70000000000000000E+02   1.80000000000000000E+02   1.90000000000000000E+02   2.00000000000000000E+02
             2.10000000000000000E+02   2.20000000000000000E+02   2.30000000000000000E+02   2.40000000000000000E+02   2.50000000000000000E+02
             2.60000000000000000E+02   2.70000000000000000E+02   2.80000000000000000E+02   2.90000000000000000E+02   3.00000000000000000E+02
             3.10000000000000000E+02   3.20000000000000000E+02   3.30000000000000000E+02   3.40000000000000000E+02   3.50000000000000000E+02
             3.60000000000000000E+02   3.70000000000000000E+02   3.80000000000000000E+02   3.90000000000000000E+02   4.00000000000000000E+02
             4.10000000000000000E+02   4.20000000000000000E+02   4.30000000000000000E+02   4.40000000000000000E+02   4.50000000000000000E+02
             4.60000000000000000E+02   4.70000000000000000E+02   4.80000000000000000E+02   4.90000000000000000E+02   5.00000000000000000E+02
             5.10000000000000000E+02   5.20000000000000000E+02   5.30000000000000000E+02   5.40000000000000000E+02   5.50000000000000000E+02
             5.60000000000000000E+02   5.70000000000000000E+02   5.80000000000000000E+02   5.90000000000000000E+02   6.00000000000000000E+02
             6.10000000000000000E+02   6.20000000000000000E+02   6.30000000000000000E+02   6.40000000000000000E+02   6.50000000000000000E+02
             6.60000000000000000E+02   6.70000000000000000E+02   6.80000000000000000E+02   6.90000000000000000E+02   7.00000000000000000E+02
             7.10000000000000000E+02   7.20000000000000000E+02   7.30000000000000000E+02   7.40000000000000000E+02   7.50000000000000000E+02
             7.60000000000000000E+02   7.70000000000000000E+02   7.80000000000000000E+02   7.90000000000000000E+02   8.00000000000000000E+02
             8.10000000000000000E+02   8.20000000000000000E+02   8.30000000000000000E+02   8.40000000000000000E+02   8.50000000000000000E+02
             8.60000000000000000E+02   8.70000000000000000E+02   8.80000000000000000E+02   8.90000000000000000E+02   9.00000000000000000E+02
             9.10000000000000000E+02
 ETA=   30   1.00000000000000000E+01   2.00000000000000000E+01   3.00000000000000000E+01   4.00000000000000000E+01   5.00000000000000000E+01
             6.00000000000000000E+01   7.00000000000000000E+01   8.00000000000000000E+01   9.00000000000000000E+01   1.00000000000000000E+02
             1.10000000000000000E+02   1.20000000000000000E+02   1.30000000000000000E+02   1.40000000000000000E+02   1.50000000000000000E+02
             1.60000000000000000E+02   1.70000000000000000E+02   1.80000000000000000E+02   1.90000000000000000E+02   2.00000000000000000E+02
             2.10000000000000000E+02   2.20000000000000000E+02   2.30000000000000000E+02   2.40000000000000000E+02   2.50000000000000000E+02
             2.60000000000000000E+02   2.70000000000000000E+02   2.80000000000000000E+02   2.90000000000000000E+02   3.00000000000000000E+02
             3.10000000000000000E+02   3.20000000000000000E+02   3.30000000000000000E+02   3.40000000000000000E+02   3.50000000000000000E+02
             3.60000000000000000E+02   3.70000000000000000E+02   3.80000000000000000E+02   3.90000000000000000E+02   4.00000000000000000E+02
             4.10000000000000000E+02   4.20000000000000000E+02   4.30000000000000000E+02   4.40000000000000000E+02   4.50000000000000000E+02
             4.60000000000000000E+02   4.70000000000000000E+02   4.80000000000000000E+02   4.90000000000000000E+02   5.00000000000000000E+02
             5.10000000000000000E+02   5.20000000000000000E+02   5.30000000000000000E+02   5.40000000000000000E+02   5.50000000000000000E+02
             5.60000000000000000E+02   5.70000000000000000E+02   5.80000000000000000E+02   5.90000000000000000E+02   6.00000000000000000E+02
             6.10000000000000000E+02   6.20000000000000000E+02   6.30000000000000000E+02   6.40000000000000000E+02   6.50000000000000000E+02
             6.60000000000000000E+02   6.70000000000000000E+02   6.80000000000000000E+02   6.90000000000000000E+02   7.00000000000000000E+02
             7.10000000000000000E+02   7.20000000000000000E+02   7.30000000000000000E+02   7.40000000000000000E+02   7.50000000000000000E+02
             7.60000000000000000E+02   7.70000000000000000E+02   7.80000000000000000E+02   7.90000000000000000E+02   8.00000000000000000E+02
             8.10000000000000000E+02   8.20000000000000000E+02   8.30000000000000000E+02   8.40000000000000000E+02   8.50000000000000000E+02
             8.60000000000000000E+02   8.70000000000000000E+02   8.80000000000000000E+02   8.90000000000000000E+02   9.00000000000000000E+02
             9.10000000000000000E+02
 ETA=   31   1.00000000000000000E+01   2.00000000000000000E+01   3.00000000000000000E+01   4.00000000000000000E+01   5.00000000000000000E+01
             6.00000000000000000E+01   7.00000000000000000E+01   8.00000000000000000E+01   9.00000000000000000E+01   1.00000000000000000E+02
             1.10000000000000000E+02   1.20000000000000000E+02   1.30000000000000000E+02   1.40000000000000000E+02   1.50000000000000000E+02
             1.60000000000000000E+02   1.70000000000000000E+02   1.80000000000000000E+02   1.90000000000000000E+02   2.00000000000000000E+02
             2.10000000000000000E+02   2.20000000000000000E+02   2.30000000000000000E+02   2.40000000000000000E+02   2.50000000000000000E+02
             2.60000000000000000E+02   2.70000000000000000E+02   2.80000000000000000E+02   2.90000000000000000E+02   3.00000000000000000E+02
             3.10000000000000000E+02   3.20000000000000000E+02   3.30000000000000000E+02   3.40000000000000000E+02   3.50000000000000000E+02
             3.60000000000000000E+02   3.70000000000000000E+02   3.80000000000000000E+02   3.90000000000000000E+02   4.00000000000000000E+02
             4.10000000000000000E+02   4.20000000000000000E+02   4.30000000000000000E+02   4.40000000000000000E+02   4.50000000000000000E+02
             4.60000000000000000E+02   4.70000000000000000E+02   4.80000000000000000E+02   4.90000000000000000E+02   5.00000000000000000E+02
             5.10000000000000000E+02   5.20000000000000000E+02   5.30000000000000000E+02   5.40000000000000000E+02   5.50000000000000000E+02
             5.60000000000000000E+02   5.70000000000000000E+02   5.80000000000000000E+02   5.90000000000000000E+02   6.00000000000000000E+02
             6.10000000000000000E+02   6.20000000000000000E+02   6.30000000000000000E+02   6.40000000000000000E+02   6.50000000000000000E+02
             6.60000000000000000E+02   6.70000000000000000E+02   6.80000000000000000E+02   6.90000000000000000E+02   7.00000000000000000E+02
[...]
             2.40000000000000000E+02   2.40000000000000000E+02   2.40000000000000000E+02   2.40000000000000000E+02   2.40000000000000000E+02
             2.40000000000000000E+02   2.40000000000000000E+02   2.40000000000000000E+02   2.40000000000000000E+02   2.40000000000000000E+02
             2.40000000000000000E+02   2.40000000000000000E+02   2.40000000000000000E+02   2.40000000000000000E+02   2.40000000000000000E+02
             2.40000000000000000E+02   2.40000000000000000E+02   2.40000000000000000E+02   2.40000000000000000E+02   2.40000000000000000E+02
             2.40000000000000000E+02   2.40000000000000000E+02   2.40000000000000000E+02   2.40000000000000000E+02   2.40000000000000000E+02
             2.40000000000000000E+02   2.40000000000000000E+02   2.40000000000000000E+02   2.40000000000000000E+02   2.40000000000000000E+02
             2.40000000000000000E+02   2.40000000000000000E+02   2.40000000000000000E+02   2.40000000000000000E+02   2.40000000000000000E+02
             2.40000000000000000E+02   2.40000000000000000E+02   2.40000000000000000E+02   2.40000000000000000E+02   2.40000000000000000E+02
             2.40000000000000000E+02   2.40000000000000000E+02   2.40000000000000000E+02   2.40000000000000000E+02   2.40000000000000000E+02
             2.40000000000000000E+02   2.40000000000000000E+02   2.40000000000000000E+02   2.40000000000000000E+02   2.40000000000000000E+02
             2.40000000000000000E+02   2.40000000000000000E+02   2.40000000000000000E+02   2.40000000000000000E+02   2.40000000000000000E+02
             2.40000000000000000E+02   2.40000000000000000E+02   2.40000000000000000E+02   2.40000000000000000E+02   2.40000000000000000E+02
             2.40000000000000000E+02
 ETA=   25   2.50000000000000000E+02   2.50000000000000000E+02   2.50000000000000000E+02   2.50000000000000000E+02   2.50000000000000000E+02
             2.50000000000000000E+02   2.50000000000000000E+02   2.50000000000000000E+02   2.50000000000000000E+02   2.50000000000000000E+02
             2.50000000000000000E+02   2.50000000000000000E+02   2.50000000000000000E+02   2.50000000000000000E+02   2.50000000000000000E+02
             2.50000000000000000E+02   2.50000000000000000E+02   2.50000000000000000E+02   2.50000000000000000E+02   2.50000000000000000E+02
             2.50000000000000000E+02   2.50000000000000000E+02   2.50000000000000000E+02   2.50000000000000000E+02   2.50000000000000000E+02
             2.50000000000000000E+02   2.50000000000000000E+02   2.50000000000000000E+02   2.50000000000000000E+02   2.50000000000000000E+02
             2.50000000000000000E+02   2.50000000000000000E+02   2.50000000000000000E+02   2.50000000000000000E+02   2.50000000000000000E+02
             2.50000000000000000E+02   2.50000000000000000E+02   2.50000000000000000E+02   2.50000000000000000E+02   2.50000000000000000E+02
             2.50000000000000000E+02   2.50000000000000000E+02   2.50000000000000000E+02   2.50000000000000000E+02   2.50000000000000000E+02
             2.50000000000000000E+02   2.50000000000000000E+02   2.50000000000000000E+02   2.50000000000000000E+02   2.50000000000000000E+02
             2.50000000000000000E+02   2.50000000000000000E+02   2.50000000000000000E+02   2.50000000000000000E+02   2.50000000000000000E+02
             2.50000000000000000E+02   2.50000000000000000E+02   2.50000000000000000E+02   2.50000000000000000E+02   2.50000000000000000E+02
             2.50000000000000000E+02   2.50000000000000000E+02   2.50000000000000000E+02   2.50000000000000000E+02   2.50000000000000000E+02
             2.50000000000000000E+02   2.50000000000000000E+02   2.50000000000000000E+02   2.50000000000000000E+02   2.50000000000000000E+02
             2.50000000000000000E+02   2.50000000000000000E+02   2.50000000000000000E+02   2.50000000000000000E+02   2.50000000000000000E+02
             2.50000000000000000E+02   2.50000000000000000E+02   2.50000000000000000E+02   2.50000000000000000E+02   2.50000000000000000E+02
             2.50000000000000000E+02   2.50000000000000000E+02   2.50000000000000000E+02   2.50000000000000000E+02   2.50000000000000000E+02
             2.50000000000000000E+02   2.50000000000000000E+02   2.50000000000000000E+02   2.50000000000000000E+02   2.50000000000000000E+02
             2.50000000000000000E+02
 ETA=   26   2.60000000000000000E+02   2.60000000000000000E+02   2.60000000000000000E+02   2.60000000000000000E+02   2.60000000000000000E+02
             2.60000000000000000E+02   2.60000000000000000E+02   2.60000000000000000E+02   2.60000000000000000E+02   2.60000000000000000E+02
             2.60000000000000000E+02   2.60000000000000000E+02   2.60000000000000000E+02   2.60000000000000000E+02   2.60000000000000000E+02
             2.60000000000000000E+02   2.60000000000000000E+02   2.60000000000000000E+02   2.60000000000000000E+02   2.60000000000000000E+02
             2.60000000000000000E+02   2.60000000000000000E+02   2.60000000000000000E+02   2.60000000000000000E+02   2.60000000000000000E+02
             2.60000000000000000E+02   2.60000000000000000E+02   2.60000000000000000E+02   2.60000000000000000E+02   2.60000000000000000E+02
             2.60000000000000000E+02   2.60000000000000000E+02   2.60000000000000000E+02   2.60000000000000000E+02   2.60000000000000000E+02
             2.60000000000000000E+02   2.60000000000000000E+02   2.60000000000000000E+02   2.60000000000000000E+02   2.60000000000000000E+02
             2.60000000000000000E+02   2.60000000000000000E+02   2.60000000000000000E+02   2.60000000000000000E+02   2.60000000000000000E+02
             2.60000000000000000E+02   2.60000000000000000E+02   2.60000000000000000E+02   2.60000000000000000E+02   2.60000000000000000E+02
             2.60000000000000000E+02   2.60000000000000000E+02   2.60000000000000000E+02   2.60000000000000000E+02   2.60000000000000000E+02
             2.60000000000000000E+02   2.60000000000000000E+02   2.60000000000000000E+02   2.60000000000000000E+02   2.60000000000000000E+02
             2.60000000000000000E+02   2.60000000000000000E+02   2.60000000000000000E+02   2.60000000000000000E+02   2.60000000000000000E+02
             2.60000000000000000E+02   2.60000000000000000E+02   2.60000000000000000E+02   2.60000000000000000E+02   2.60000000000000000E+02
             2.60000000000000000E+02   2.60000000000000000E+02   2.60000000000000000E+02   2.60000000000000000E+02   2.60000000000000000E+02
             2.60000000000000000E+02   2.60000000000000000E+02   2.60000000000000000E+02   2.60000000000000000E+02   2.60000000000000000E+02
             2.60000000000000000E+02   2.60000000000000000E+02   2.60000000000000000E+02   2.60000000000000000E+02   2.60000000000000000E+02
             2.60000000000000000E+02   2.60000000000000000E+02   2.60000000000000000E+02   2.60000000000000000E+02   2.60000000000000000E+02
             2.60000000000000000E+02
 ETA=   27   2.70000000000000000E+02   2.70000000000000000E+02   2.70000000000000000E+02   2.70000000000000000E+02   2.70000000000000000E+02
             2.70000000000000000E+02   2.70000000000000000E+02   2.70000000000000000E+02   2.70000000000000000E+02   2.70000000000000000E+02
             2.70000000000000000E+02   2.70000000000000000E+02   2.70000000000000000E+02   2.70000000000000000E+02   2.70000000000000000E+02
             2.70000000000000000E+02   2.70000000000000000E+02   2.70000000000000000E+02   2.70000000000000000E+02   2.70000000000000000E+02
             2.70000000000000000E+02   2.70000000000000000E+02   2.70000000000000000E+02   2.70000000000000000E+02   2.70000000000000000E+02
             2.70000000000000000E+02   2.70000000000000000E+02   2.70000000000000000E+02   2.70000000000000000E+02   2.70000000000000000E+02
             2.70000000000000000E+02   2.70000000000000000E+02   2.70000000000000000E+02   2.70000000000000000E+02   2.70000000000000000E+02
             2.70000000000000000E+02   2.70000000000000000E+02   2.70000000000000000E+02   2.70000000000000000E+02   2.70000000000000000E+02
             2.70000000000000000E+02   2.70000000000000000E+02   2.70000000000000000E+02   2.70000000000000000E+02   2.70000000000000000E+02
             2.70000000000000000E+02   2.70000000000000000E+02   2.70000000000000000E+02   2.70000000000000000E+02   2.70000000000000000E+02
             2.70000000000000000E+02   2.70000000000000000E+02   2.70000000000000000E+02   2.70000000000000000E+02   2.70000000000000000E+02
             2.70000000000000000E+02   2.70000000000000000E+02   2.70000000000000000E+02   2.70000000000000000E+02   2.70000000000000000E+02
             2.70000000000000000E+02   2.70000000000000000E+02   2.70000000000000000E+02   2.70000000000000000E+02   2.70000000000000000E+02
             2.70000000000000000E+02   2.70000000000000000E+02   2.70000000000000000E+02   2.70000000000000000E+02   2.70000000000000000E+02
             2.70000000000000000E+02   2.70000000000000000E+02   2.70000000000000000E+02   2.70000000000000000E+02   2.70000000000000000E+02
             2.70000000000000000E+02   2.70000000000000000E+02   2.70000000000000000E+02   2.70000000000000000E+02   2.70000000000000000E+02
             2.70000000000000000E+02   2.70000000000000000E+02   2.70000000000000000E+02   2.70000000000000000E+02   2.70000000000000000E+02
             2.70000000000000000E+02   2.70000000000000000E+02   2.70000000000000000E+02   2.70000000000000000E+02   2.70000000000000000E+02
             2.70000000000000000E+02
 ETA=   28   2.80000000000000000E+02   2.80000000000000000E+02   2.80000000000000000E+02   2.80000000000000000E+02   2.80000000000000000E+02
             2.80000000000000000E+02   2.80000000000000000E+02   2.80000000000000000E+02   2.80000000000000000E+02   2.80000000000000000E+02
             2.80000000000000000E+02   2.80000000000000000E+02   2.80000000000000000E+02   2.80000000000000000E+02   2.80000000000000000E+02
             2.80000000000000000E+02   2.80000000000000000E+02   2.80000000000000000E+02   2.80000000000000000E+02   2.80000000000000000E+02
             2.80000000000000000E+02   2.80000000000000000E+02   2.80000000000000000E+02   2.80000000000000000E+02   2.80000000000000000E+02
             2.80000000000000000E+02   2.80000000000000000E+02   2.80000000000000000E+02   2.80000000000000000E+02   2.80000000000000000E+02
             2.80000000000000000E+02   2.80000000000000000E+02   2.80000000000000000E+02   2.80000000000000000E+02   2.80000000000000000E+02
             2.80000000000000000E+02   2.80000000000000000E+02   2.80000000000000000E+02   2.80000000000000000E+02   2.80000000000000000E+02
             2.80000000000000000E+02   2.80000000000000000E+02   2.80000000000000000E+02   2.80000000000000000E+02   2.80000000000000000E+02
             2.80000000000000000E+02   2.80000000000000000E+02   2.80000000000000000E+02   2.80000000000000000E+02   2.80000000000000000E+02
             2.80000000000000000E+02   2.80000000000000000E+02   2.80000000000000000E+02   2.80000000000000000E+02   2.80000000000000000E+02
             2.80000000000000000E+02   2.80000000000000000E+02   2.80000000000000000E+02   2.80000000000000000E+02   2.80000000000000000E+02
             2.80000000000000000E+02   2.80000000000000000E+02   2.80000000000000000E+02   2.80000000000000000E+02   2.80000000000000000E+02
             2.80000000000000000E+02   2.80000000000000000E+02   2.80000000000000000E+02   2.80000000000000000E+02   2.80000000000000000E+02
             2.80000000000000000E+02   2.80000000000000000E+02   2.80000000000000000E+02   2.80000000000000000E+02   2.80000000000000000E+02
             2.80000000000000000E+02   2.80000000000000000E+02   2.80000000000000000E+02   2.80000000000000000E+02   2.80000000000000000E+02
             2.80000000000000000E+02   2.80000000000000000E+02   2.80000000000000000E+02   2.80000000000000000E+02   2.80000000000000000E+02
             2.80000000000000000E+02   2.80000000000000000E+02   2.80000000000000000E+02   2.80000000000000000E+02   2.80000000000000000E+02
             2.80000000000000000E+02
 ETA=   29   2.90000000000000000E+02   2.90000000000000000E+02   2.90000000000000000E+02   2.90000000000000000E+02   2.90000000000000000E+02
             2.90000000000000000E+02   2.90000000000000000E+02   2.90000000000000000E+02   2.90000000000000000E+02   2.90000000000000000E+02
             2.90000000000000000E+02   2.90000000000000000E+02   2.90000000000000000E+02   2.90000000000000000E+02   2.90000000000000000E+02
             2.90000000000000000E+02   2.90000000000000000E+02   2.90000000000000000E+02   2.90000000000000000E+02   2.90000000000000000E+02
             2.90000000000000000E+02   2.90000000000000000E+02   2.90000000000000000E+02   2.90000000000000000E+02   2.90000000000000000E+02
             2.90000000000000000E+02   2.90000000000000000E+02   2.90000000000000000E+02   2.90000000000000000E+02   2.90000000000000000E+02
             2.90000000000000000E+02   2.90000000000000000E+02   2.90000000000000000E+02   2.90000000000000000E+02   2.90000000000000000E+02
             2.90000000000000000E+02   2.90000000000000000E+02   2.90000000000000000E+02   2.90000000000000000E+02   2.90000000000000000E+02
             2.90000000000000000E+02   2.90000000000000000E+02   2.90000000000000000E+02   2.90000000000000000E+02   2.90000000000000000E+02
             2.90000000000000000E+02   2.90000000000000000E+02   2.90000000000000000E+02   2.90000000000000000E+02   2.90000000000000000E+02
             2.90000000000000000E+02   2.90000000000000000E+02   2.90000000000000000E+02   2.90000000000000000E+02   2.90000000000000000E+02
             2.90000000000000000E+02   2.90000000000000000E+02   2.90000000000000000E+02   2.90000000000000000E+02   2.90000000000000000E+02
             2.90000000000000000E+02   2.90000000000000000E+02   2.90000000000000000E+02   2.90000000000000000E+02   2.90000000000000000E+02
             2.90000000000000000E+02   2.90000000000000000E+02   2.90000000000000000E+02   2.90000000000000000E+02   2.90000000000000000E+02
             2.90000000000000000E+02   2.90000000000000000E+02   2.90000000000000000E+02   2.90000000000000000E+02   2.90000000000000000E+02
             2.90000000000000000E+02   2.90000000000000000E+02   2.90000000000000000E+02   2.90000000000000000E+02   2.90000000000000000E+02
             2.90000000000000000E+02   2.90000000000000000E+02   2.90000000000000000E+02   2.90000000000000000E+02   2.90000000000000000E+02
             2.90000000000000000E+02   2.90000000000000000E+02   2.90000000000000000E+02   2.90000000000000000E+02   2.90000000000000000E+02
             2.90000000000000000E+02
 ETA=   30   3.00000000000000000E+02   3.00000000000000000E+02   3.00000000000000000E+02   3.00000000000000000E+02   3.00000000000000000E+02
             3.00000000000000000E+02   3.00000000000000000E+02   3.00000000000000000E+02   3.00000000000000000E+02   3.00000000000000000E+02
             3.00000000000000000E+02   3.00000000000000000E+02   3.00000000000000000E+02   3.00000000000000000E+02   3.00000000000000000E+02
             3.00000000000000000E+02   3.00000000000000000E+02   3.00000000000000000E+02   3.00000000000000000E+02   3.00000000000000000E+02
             3.00000000000000000E+02   3.00000000000000000E+02   3.00000000000000000E+02   3.00000000000000000E+02   3.00000000000000000E+02
             3.00000000000000000E+02   3.00000000000000000E+02   3.00000000000000000E+02   3.00000000000000000E+02   3.00000000000000000E+02
             3.00000000000000000E+02   3.00000000000000000E+02   3.00000000000000000E+02   3.00000000000000000E+02   3.00000000000000000E+02
             3.00000000000000000E+02   3.00000000000000000E+02   3.00000000000000000E+02   3.00000000000000000E+02   3.00000000000000000E+02
             3.00000000000000000E+02   3.00000000000000000E+02   3.00000000000000000E+02   3.00000000000000000E+02   3.00000000000000000E+02
             3.00000000000000000E+02   3.00000000000000000E+02   3.00000000000000000E+02   3.00000000000000000E+02   3.00000000000000000E+02
             3.00000000000000000E+02   3.00000000000000000E+02   3.00000000000000000E+02   3.00000000000000000E+02   3.00000000000000000E+02
             3.00000000000000000E+02   3.00000000000000000E+02   3.00000000000000000E+02   3.00000000000000000E+02   3.00000000000000000E+02
             3.00000000000000000E+02   3.00000000000000000E+02   3.00000000000000000E+02   3.00000000000000000E+02   3.00000000000000000E+02
             3.00000000000000000E+02   3.00000000000000000E+02   3.00000000000000000E+02   3.00000000000000000E+02   3.00000000000000000E+02
             3.00000000000000000E+02   3.00000000000000000E+02   3.00000000000000000E+02   3.00000000000000000E+02   3.00000000000000000E+02
             3.00000000000000000E+02   3.00000000000000000E+02   3.00000000000000000E+02   3.00000000000000000E+02   3.00000000000000000E+02
             3.00000000000000000E+02   3.00000000000000000E+02   3.00000000000000000E+02   3.00000000000000000E+02   3.00000000000000000E+02
             3.00000000000000000E+02   3.00000000000000000E+02   3.00000000000000000E+02   3.00000000000000000E+02   3.00000000000000000E+02
             3.00000000000000000E+02
 ETA=   31   3.10000000000000000E+02   3.10000000000000000E+02   3.10000000000000000E+02   3.10000000000000000E+02   3.10000000000000000E+02
             3.10000000000000000E+02   3.10000000000000000E+02   3.10000000000000000E+02   3.10000000000000000E+02   3.10000000000000000E+02
             3.10000000000000000E+02   3.10000000000000000E+02   3.10000000000000000E+02   3.10000000000000000E+02   3.10000000000000000E+02
             3.10000000000000000E+02   3.10000000000000000E+02   3.10000000000000000E+02   3.10000000000000000E+02   3.10000000000000000E+02
             3.10000000000000000E+02   3.10000000000000000E+02   3.10000000000000000E+02   3.10000000000000000E+02   3.10000000000000000E+02
             3.10000000000000000E+02   3.10000000000000000E+02   3.10000000000000000E+02   3.10000000000000000E+02   3.10000000000000000E+02
             3.10000000000000000E+02   3.10000000000000000E+02   3.10000000000000000E+02   3.10000000000000000E+02   3.10000000000000000E+02
             3.10000000000000000E+02   3.10000000000000000E+02   3.10000000000000000E+02   3.10000000000000000E+02   3.10000000000000000E+02
             3.10000000000000000E+02   3.10000000000000000E+02   3.10000000000000000E+02   3.10000000000000000E+02   3.10000000000000000E+02
             3.10000000000000000E+02   3.10000000000000000E+02   3.10000000000000000E+02   3.10000000000000000E+02   3.10000000000000000E+02
             3.10000000000000000E+02   3.10000000000000000E+02   3.10000000000000000E+02   3.10000000000000000E+02   3.10000000000000000E+02
             3.10000000000000000E+02   3.10000000000000000E+02   3.10000000000000000E+02   3.10000000000000000E+02   3.10000000000000000E+02
             3.10000000000000000E+02   3.10000000000000000E+02   3.10000000000000000E+02   3.10000000000000000E+02   3.10000000000000000E+02
             3.10000000000000000E+02   3.10000000000000000E+02   3.10000000000000000E+02   3.10000000000000000E+02   3.10000000000000000E+02
             3.10000000000000000E+02   3.10000000000000000E+02   3.10000000000000000E+02   3.10000000000000000E+02   3.10000000000000000E+02
             3.10000000000000000E+02   3.10000000000000000E+02   3.10000000000000000E+02   3.10000000000000000E+02   3.10000000000000000E+02
             3.10000000000000000E+02   3.10000000000000000E+02   3.10000000000000000E+02   3.10000000000000000E+02   3.10000000000000000E+02
             3.10000000000000000E+02   3.10000000000000000E+02   3.10000000000000000E+02   3.10000000000000000E+02   3.10000000000000000E+02
             3.10000000000000000E+02
