

--------------------------------------------------------------------------------

Command: run Delft3D-FLOW
   Starting Delft3D-FLOW computation ...
--------------------------------------------------------------------------------
       Deltares, FLOW2D3D Version 6.01.08.s33352.3872, Jun 27 2014, 11:33:33
       flow2d3d.dll entry Flow2D3D::Run
--------------------------------------------------------------------------------

Part I    - Initialisation Time Dep. Data module...    
            runid : tacloban
Part II   - Creating intermediate files...             
Part III  - Initialisation of the Execution module...  
Part IV   - Reading complete MD-file...                     
Part V    - Initialisation & checking input...              
Part VI   - Initialisation & checking second part...        
Part VII  - Initialisation output...                        
Part VIII - Start Simulation...                             
 
  Time to finish   0s,    0.0% completed, time steps left  120
  Time to finish   2m 25s,    0.8% completed, time steps left  119
  Time to finish   1m 27s,    1.7% completed, time steps left  118
  Time to finish   1m  9s,    2.5% completed, time steps left  117
  Time to finish  59s,    3.3% completed, time steps left  116
  Time to finish  53s,    4.2% completed, time steps left  115
  Time to finish  50s,    5.0% completed, time steps left  114
  Time to finish  49s,    5.8% completed, time steps left  113
  Time to finish  46s,    6.7% completed, time steps left  112
  Time to finish  46s,    7.5% completed, time steps left  111
  Time to finish  44s,    8.3% completed, time steps left  110
  Time to finish  43s,    9.2% completed, time steps left  109
  Time to finish  42s,   10.0% completed, time steps left  108
  Time to finish  41s,   10.8% completed, time steps left  107
  Time to finish  40s,   11.7% completed, time steps left  106
  Time to finish  39s,   12.5% completed, time steps left  105
  Time to finish  39s,   13.3% completed, time steps left  104
  Time to finish  38s,   14.2% completed, time steps left  103
  Time to finish  38s,   15.0% completed, time steps left  102
  Time to finish  38s,   15.8% completed, time steps left  101
  Time to finish  38s,   16.7% completed, time steps left  100
  Time to finish  39s,   17.5% completed, time steps left  99
  Time to finish  38s,   18.3% completed, time steps left  98
  Time to finish  38s,   19.2% completed, time steps left  97
  Time to finish  38s,   20.0% completed, time steps left  96
  Time to finish  39s,   20.8% completed, time steps left  95
  Time to finish  39s,   21.7% completed, time steps left  94
  Time to finish  39s,   22.5% completed, time steps left  93
  Time to finish  39s,   23.3% completed, time steps left  92
  Time to finish  39s,   24.2% completed, time steps left  91
  Time to finish  39s,   25.0% completed, time steps left  90
  Time to finish  39s,   25.8% completed, time steps left  89
  Time to finish  39s,   26.7% completed, time steps left  88
  Time to finish  39s,   27.5% completed, time steps left  87
  Time to finish  40s,   28.3% completed, time steps left  86
  Time to finish  40s,   29.2% completed, time steps left  85
  Time to finish  40s,   30.0% completed, time steps left  84
  Time to finish  41s,   30.8% completed, time steps left  83
  Time to finish  43s,   31.7% completed, time steps left  82
  Time to finish  44s,   32.5% completed, time steps left  81
  Time to finish  44s,   33.3% completed, time steps left  80
  Time to finish  45s,   34.2% completed, time steps left  79
  Time to finish  46s,   35.0% completed, time steps left  78
  Time to finish  46s,   35.8% completed, time steps left  77
  Time to finish  46s,   36.7% completed, time steps left  76
  Time to finish  46s,   37.5% completed, time steps left  75
  Time to finish  46s,   38.3% completed, time steps left  74
  Time to finish  47s,   39.2% completed, time steps left  73
  Time to finish  47s,   40.0% completed, time steps left  72
  Time to finish  47s,   40.8% completed, time steps left  71
  Time to finish  47s,   41.7% completed, time steps left  70
  Time to finish  47s,   42.5% completed, time steps left  69
  Time to finish  47s,   43.3% completed, time steps left  68
  Time to finish  46s,   44.2% completed, time steps left  67
  Time to finish  47s,   45.0% completed, time steps left  66
  Time to finish  46s,   45.8% completed, time steps left  65
  Time to finish  46s,   46.7% completed, time steps left  64
  Time to finish  46s,   47.5% completed, time steps left  63
  Time to finish  46s,   48.3% completed, time steps left  62
  Time to finish  45s,   49.2% completed, time steps left  61
  Time to finish  45s,   50.0% completed, time steps left  60
  Time to finish  45s,   50.8% completed, time steps left  59
  Time to finish  44s,   51.7% completed, time steps left  58
  Time to finish  44s,   52.5% completed, time steps left  57
  Time to finish  43s,   53.3% completed, time steps left  56
  Time to finish  43s,   54.2% completed, time steps left  55
  Time to finish  42s,   55.0% completed, time steps left  54
  Time to finish  41s,   55.8% completed, time steps left  53
  Time to finish  41s,   56.7% completed, time steps left  52
  Time to finish  41s,   57.5% completed, time steps left  51
  Time to finish  40s,   58.3% completed, time steps left  50
  Time to finish  39s,   59.2% completed, time steps left  49
  Time to finish  40s,   60.0% completed, time steps left  48
  Time to finish  39s,   60.8% completed, time steps left  47
  Time to finish  38s,   61.7% completed, time steps left  46
  Time to finish  38s,   62.5% completed, time steps left  45
  Time to finish  38s,   63.3% completed, time steps left  44
  Time to finish  37s,   64.2% completed, time steps left  43
  Time to finish  37s,   65.0% completed, time steps left  42
  Time to finish  36s,   65.8% completed, time steps left  41
  Time to finish  36s,   66.7% completed, time steps left  40
  Time to finish  36s,   67.5% completed, time steps left  39
  Time to finish  35s,   68.3% completed, time steps left  38
  Time to finish  35s,   69.2% completed, time steps left  37
  Time to finish  34s,   70.0% completed, time steps left  36
  Time to finish  33s,   70.8% completed, time steps left  35
  Time to finish  33s,   71.7% completed, time steps left  34
  Time to finish  32s,   72.5% completed, time steps left  33
  Time to finish  33s,   73.3% completed, time steps left  32
  Time to finish  32s,   74.2% completed, time steps left  31
  Time to finish  32s,   75.0% completed, time steps left  30
  Time to finish  31s,   75.8% completed, time steps left  29
  Time to finish  30s,   76.7% completed, time steps left  28
  Time to finish  29s,   77.5% completed, time steps left  27
  Time to finish  28s,   78.3% completed, time steps left  26
  Time to finish  27s,   79.2% completed, time steps left  25
  Time to finish  26s,   80.0% completed, time steps left  24
  Time to finish  25s,   80.8% completed, time steps left  23
  Time to finish  24s,   81.7% completed, time steps left  22
  Time to finish  23s,   82.5% completed, time steps left  21
  Time to finish  22s,   83.3% completed, time steps left  20
  Time to finish  21s,   84.2% completed, time steps left  19
  Time to finish  20s,   85.0% completed, time steps left  18
  Time to finish  19s,   85.8% completed, time steps left  17
  Time to finish  18s,   86.7% completed, time steps left  16
  Time to finish  17s,   87.5% completed, time steps left  15
  Time to finish  16s,   88.3% completed, time steps left  14
  Time to finish  15s,   89.2% completed, time steps left  13
  Time to finish  14s,   90.0% completed, time steps left  12
  Time to finish  12s,   90.8% completed, time steps left  11
  Time to finish  11s,   91.7% completed, time steps left  10
  Time to finish  10s,   92.5% completed, time steps left  9
  Time to finish   9s,   93.3% completed, time steps left  8
  Time to finish   8s,   94.2% completed, time steps left  7
  Time to finish   7s,   95.0% completed, time steps left  6
  Time to finish   6s,   95.8% completed, time steps left  5
  Time to finish   5s,   96.7% completed, time steps left  4
  Time to finish   3s,   97.5% completed, time steps left  3
  Time to finish   2s,   98.3% completed, time steps left  2
  Time to finish   1s,   99.2% completed, time steps left  1
 
 
------------------------------------------------------------------------------
  FINISHED    Delft3D-FLOW
              runid      : tacloban
              date, time : 2015-11-27, 14:26:31
*** WARNING Number of cycles <> 0 for function "max"
*** WARNING Latitude of your model is 0 degrees, model located at equator
*** WARNING File will not be created - Inconsistent comm. file times
*** WARNING Minimum layer thickness (0.1*Dryflc) is too large for the vertical
*** WARNING Velocity change too high >       5.00 m/s (per 0.5 DT) after 29 tim
***         esteps in the following points:
*** WARNING Velocity change too high >       5.00 m/s (per 0.5 DT) after 30 tim
***         esteps in the following points:
*** WARNING Velocity change too high >       5.00 m/s (per 0.5 DT) after 30 tim
***         esteps in the following points:
*** WARNING Velocity change too high >       5.00 m/s (per 0.5 DT) after 31 tim
***         esteps in the following points:
*** WARNING Velocity change too high >       5.00 m/s (per 0.5 DT) after 31 tim
***         esteps in the following points:
*** WARNING Velocity change too high >       5.00 m/s (per 0.5 DT) after 31 tim
***         esteps in the following points:
  *** Too many errors and warnings to write to screen !! 
    0 errors and   356 warnings
returning to main program from domain tacloban
------------------------------------------------------------------------------
D_Hydro [31.000798] <anonymous> >> d_hydro shutting down normally
