Ident = #Delft3D-FLOW  .03.02 3.39.26#
Runtxt= #                              #
Filcco= #tacloban.grd#
Fmtcco= #FR#
Anglat= 0.0000000e+00
Grdang= 0.0000000e+00
Filgrd= #tacloban.enc#
Fmtgrd= #FR#
MNKmax= 302 552   1
Thick = 1.0000000e+02
Fildep= #tacloban.dep#
Fmtdep= #FR#
Itdate= #2015-11-27#
Tunit = #M#
Tstart= 0.0000000e+00
Tstop = 30.0
Dt    = 2.5000000e-01
Tzone = 0
Sub1  = #    #
Sub2  = #   #
Wnsvwp= #N#
Wndint= #Y#
Zeta0 = 0.0000000e+00
U0    = [.]
V0    = [.]
Filbnd= #tacloban.bnd#
Fmtbnd= #FR#
FilbcT= #tacloban.bct#
FmtbcT= #FR#
Ag    = 9.8100000e+00
Rhow  = 1.0000000e+03
Alph0 = [.]
Tempw = 1.5000000e+01
Salw  = 3.1000000e+01
Rouwav= #    #
Wstres= 1.0000000e-03   0.0000000e+00   3.0000000e-03   2.5000000e+01
Rhoa  = 1.0000000e+00
Betac = 5.0000000e-01
Equili= #N#
Tkemod= #            #
Ktemp = 0
Fclou = 0.0000000e+00
Sarea = 0.0000000e+00
Temint= #Y#
Roumet= #M#
Ccofu = 2.0000000e-02
Ccofv = 2.0000000e-02
Xlo   = 0.0000000e+00
Vicouv= 1.0000000e+00
Dicouv= 1.0000000e+00
Htur2d= #N#
Irov  = 0
Iter  = 2
Dryflp= #YES#
Dpsopt= #MEAN#
Dpuopt= #MEAN#
Dryflc= 1.0000000e-01
Dco   = -9.9900000e+02
Tlfsmo= 0.0000000e+00
ThetQH= 0.0000000e+00
Forfuv= #N#
Forfww= #N#
Sigcor= #N#
Trasol= #Cyclic-method#
Momsol= #Cyclic#
SMhydr= #YYYYY#
SMderv= #YYYYYY#
SMproc= #YYYYYYYYYY#
PMhydr= #YYYYYY#
PMderv= #YYY#
PMproc= #YYYYYYYYYY#
SHhydr= #YYYY#
SHderv= #YYYYY#
SHproc= #YYYYYYYYYY#
SHflux= #YYYY#
PHhydr= #YYYYYY#
PHderv= #YYY#
PHproc= #YYYYYYYYYY#
PHflux= #YYYY#
Online= #N#
Waqmod= #N#
WaveOL= #N#
Prhis = 0.0000000e+00   0.0000000e+00   0.0000000e+00
Flmap = 0.0000000e+00   1.0000000e+00   3.0000000e+03
Flhis = 0.0000000e+00   0.0000000e+00   3.0000000e+03
Flpp  = 0.0000000e+00   0.0000000e+00   3.0000000e+03
Flrst = 0.0000000e+00
CstBnd= #Y#
Filfou= #tacloban.fou#
