*
* Deltares, Delft3D-QUICKIN Version 4.17.06.11240, Apr 13 2010, 20:40:49
* File creation date: 2010-09-09, 23:08:24
*
