*
* Deltares, Delft3D-RGFGRID Version 4.18.01.18383, Sep  7 2011, 14:23:22
* File creation date: 2013-02-20, 15:58:40
*
Coordinate System = Cartesian
      28       9
 0 0 0
 ETA=    1   1.00000000000000000E+04   1.04809739384562563E+04   1.09635383222738928E+04   1.14468428501516137E+04   1.19303403616311371E+04
             1.24136308346771184E+04   1.28964378918557104E+04   1.33785541845134849E+04   1.38598734066987927E+04   1.43402243702356918E+04
             1.48194818031716695E+04   1.52975222856900527E+04   1.57742224090348482E+04   1.62494580363573477E+04   1.67231039094024527E+04
             1.71950334674108417E+04   1.76651187862726365E+04   1.81332305921721636E+04   1.85992383268105368E+04   1.90630102526315350E+04
             1.95244135920695917E+04   1.99833146975413620E+04   2.04395792501434407E+04   2.08930724855207663E+04   2.13436594454980550E+04
             2.17912052540078694E+04   2.22355754156988223E+04   2.26766361354167020E+04
 ETA=    2   9.99996054406508301E+03   1.04809730163304321E+04   1.09635387800628396E+04   1.14468439116339359E+04   1.19303412484081200E+04
             1.24136312690617960E+04   1.28964381319889617E+04   1.33785543107927060E+04   1.38598734527433462E+04   1.43402244104148213E+04
             1.48194818338455570E+04   1.52975223126180535E+04   1.57742224237245919E+04   1.62494580431391878E+04   1.67231039108404475E+04
             1.71950334652091842E+04   1.76651187815424091E+04   1.81332305856360872E+04   1.85992383189451502E+04   1.90630102437585301E+04
             1.95244135824132391E+04   1.99833146872646976E+04   2.04395792393715055E+04   2.08930724743556348E+04   2.13436594340287302E+04
             2.17912052423168680E+04   2.22355754038665291E+04   2.26766361235243712E+04
 ETA=    3   9.99993155095105431E+03   1.04809710237867785E+04   1.09635392277593928E+04   1.14468456303640232E+04   1.19303427464318193E+04
             1.24136320313540782E+04   1.28964385086205602E+04   1.33785544873471117E+04   1.38598735095112334E+04   1.43402244437954378E+04
             1.48194818515193547E+04   1.52975223248198199E+04   1.57742224235879858E+04   1.62494580356393071E+04   1.67231038987559332E+04
             1.71950334501086327E+04   1.76651187643107187E+04   1.81332305667836517E+04   1.85992382987808378E+04   1.90630102224845796E+04
             1.95244135601773851E+04   1.99833146641890271E+04   2.04395792155687741E+04   2.08930724499386051E+04   2.13436594091157967E+04
             2.17912052170354291E+04   2.22355753783551372E+04   2.26766360979340534E+04
 ETA=    4   9.99991437719917849E+03   1.04809692473486011E+04   1.09635388550492698E+04   1.14468462681242563E+04   1.19303434797277678E+04
             1.24136324057938800E+04   1.28964387022924075E+04   1.33785545659773725E+04   1.38598735070070543E+04   1.43402244402402939E+04
             1.48194818462814310E+04   1.52975223226812614E+04   1.57742224144902484E+04   1.62494580227932674E+04   1.67231038838642598E+04
             1.71950334339687979E+04   1.76651187472754027E+04   1.81332305490016988E+04   1.85992382803152796E+04   1.90630102033689691E+04
             1.95244135404419721E+04   1.99833146438723379E+04   2.04395791947223224E+04   2.08930724286284312E+04   2.13436593874228020E+04
             2.17912051950551613E+04   2.22355753561975034E+04   2.26766360757229741E+04
 ETA=    5   9.99990915975298958E+03   1.04809688079947191E+04   1.09635383558035192E+04   1.14468459648922235E+04   1.19303433021970686E+04
             1.24136322056592489E+04   1.28964385778091273E+04   1.33785544685697623E+04   1.38598734063882621E+04   1.43402243834266101E+04
             1.48194818136703288E+04   1.52975223078773433E+04   1.57742224012918850E+04   1.62494580111031537E+04   1.67231038734943504E+04
             1.71950334245840240E+04   1.76651187385525736E+04   1.81332305406799751E+04   1.85992382722007787E+04   1.90630101953254743E+04
             1.95244135323792580E+04   1.99833146357356745E+04   2.04395791864840721E+04   2.08930724202815763E+04   2.13436593789763574E+04
             2.17912051865307658E+04   2.22355753476271238E+04   2.26766360671472212E+04
 ETA=    6   9.99991571259443481E+03   1.04809699545310541E+04   1.09635379652196752E+04   1.14468448473372955E+04   1.19303422521575194E+04
             1.24136314300877038E+04   1.28964381273416984E+04   1.33785541923477958E+04   1.38598732105408126E+04   1.43402242788977910E+04
             1.48194817597524871E+04   1.52975222862141381E+04   1.57742223892999118E+04   1.62494580053267509E+04   1.67231038718869240E+04
             1.71950334257918112E+04   1.76651187416993016E+04   1.81332305451993234E+04   1.85992382777217717E+04   1.90630102015994453E+04
             1.95244135392342323E+04   1.99833146430477282E+04   2.04395791941591197E+04   2.08930724282436022E+04   2.13436593871597725E+04
             2.17912051948752996E+04   2.22355753560744779E+04   2.26766360756387694E+04
 ETA=    7   9.99993374152813158E+03   1.04809722039210283E+04   1.09635373852356624E+04   1.14468428312638680E+04   1.19303403876069060E+04
             1.24136301863993340E+04   1.28964374484420496E+04   1.33785538073601783E+04   1.38598729654711351E+04   1.43402241553773383E+04
             1.48194817018076919E+04   1.52975222678473947E+04   1.57742223842401199E+04   1.62494580083501587E+04   1.67231038800434981E+04
             1.71950334373342084E+04   1.76651187555997785E+04   1.81332305608436873E+04   1.85992382947293445E+04   1.90630102197202759E+04
             1.95244135582906747E+04   1.99833146629008297E+04   2.04395792146889362E+04   2.08930724493374219E+04   2.13436594087048870E+04
             2.17912052167544389E+04   2.22355753781629355E+04   2.26766360978025077E+04
 ETA=    8   9.99996254629065334E+03   1.04809742153716616E+04   1.09635359437837869E+04   1.14468399101735322E+04   1.19303380088469366E+04
             1.24136287913728083E+04   1.28964367701092597E+04   1.33785534557126193E+04   1.38598727541494482E+04   1.43402240592421731E+04
             1.48194816644125094E+04   1.52975222647330702E+04   1.57742223906562431E+04   1.62494580201931913E+04   1.67231038951060000E+04
             1.71950334544683174E+04   1.76651187742184266E+04   1.81332305806419390E+04   1.85992383155387652E+04   1.90630102414343637E+04
             1.95244135808269093E+04   1.99833146861815731E+04   2.04395792386317225E+04   2.08930724738501340E+04   2.13436594336832131E+04
             2.17912052420805885E+04   2.22355754037049010E+04   2.26766361234137548E+04
 ETA=    9   1.00000000000000000E+04   1.04809745457044191E+04   1.09635347095586003E+04   1.14468381782406159E+04   1.19303367627899861E+04
             1.24136281224977392E+04   1.28964365008917921E+04   1.33785533368041361E+04   1.38598726791361878E+04   1.43402240419617337E+04
             1.48194816713001237E+04   1.52975222856778310E+04   1.57742224090261916E+04   1.62494580363512196E+04   1.67231039093981162E+04
             1.71950334674077712E+04   1.76651187862704646E+04   1.81332305921706284E+04   1.85992383268094491E+04   1.90630102526307674E+04
             1.95244135920690496E+04   1.99833146975409691E+04   2.04395792501431642E+04   2.08930724855205626E+04   2.13436594454979058E+04
             2.17912052540077602E+04   2.22355754156987314E+04   2.26766361354166438E+04
 ETA=    1   4.90000000000000000E+03   4.89999966412275353E+03   4.90000006673569260E+03   4.89999999028188449E+03   4.90000000127704607E+03
             4.89999999983342423E+03   4.90000000002076558E+03   4.90000000000000000E+03   4.89999999999999818E+03   4.90000000000000000E+03
             4.90000000000000000E+03   4.90000000000000000E+03   4.90000000000000000E+03   4.90000000000000000E+03   4.90000000000000000E+03
             4.90000000000000000E+03   4.90000000000000000E+03   4.90000000000000000E+03   4.90000000000000000E+03   4.90000000000000000E+03
             4.90000000000000000E+03   4.90000000000000000E+03   4.90000000000000000E+03   4.90000000000000000E+03   4.90000000000000000E+03
             4.90000000000000000E+03   4.90000000000000000E+03   4.90000000000000000E+03
 ETA=    2   4.95004447028996947E+03   4.95006440275684417E+03   4.95006371796480289E+03   4.95004582503243819E+03   4.95002535368896679E+03
             4.95001229589916147E+03   4.95000634647043262E+03   4.95000396033609650E+03   4.95000303855818765E+03   4.95000274647074730E+03
             4.95000273069150899E+03   4.95000283696611223E+03   4.95000299465101671E+03   4.95000317485078904E+03   4.95000336150145085E+03
             4.95000354912892817E+03   4.95000373690663127E+03   4.95000392561270473E+03   4.95000411631727820E+03   4.95000430989544657E+03
             4.95000450688107685E+03   4.95000470745408620E+03   4.95000491147507819E+03   4.95000511853123407E+03   4.95000532797931373E+03
             4.95000553898150702E+03   4.95000575053398188E+03   4.95000596148954719E+03
 ETA=    3   5.00001117370771681E+03   5.00002991216398550E+03   5.00003727381556928E+03   5.00003064964370515E+03   5.00001841278021675E+03
             5.00000938195302024E+03   5.00000491158640853E+03   5.00000307588371379E+03   5.00000248847877538E+03   5.00000245865828492E+03
             5.00000264381213310E+03   5.00000290526724893E+03   5.00000318462808445E+03   5.00000346257135971E+03   5.00000372705031714E+03
             5.00000397725174389E+03   5.00000421663701854E+03   5.00000444937999418E+03   5.00000467905758342E+03   5.00000490832596915E+03
             5.00000513894910819E+03   5.00000537193146192E+03   5.00000560766424042E+03   5.00000584605372114E+03   5.00000608662371178E+03
             5.00000632859369762E+03   5.00000657093721202E+03   5.00000681242547307E+03
 ETA=    4   5.04999425891424653E+03   5.04999885385936705E+03   5.05000323029056835E+03   5.05000347804951161E+03   5.05000088795190732E+03
             5.04999902970612311E+03   5.04999861266055177E+03   5.04999891232109348E+03   5.04999950274769617E+03   5.05000014025076598E+03
             5.05000069526353855E+03   5.05000115540463776E+03   5.05000153376889102E+03   5.05000185086559759E+03   5.05000211555776059E+03
             5.05000234010651184E+03   5.05000253625936057E+03   5.05000271342920860E+03   5.05000287855890929E+03   5.05000303653372339E+03
             5.05000319065827625E+03   5.05000334306169589E+03   5.05000349501105757E+03   5.05000364714375246E+03   5.05000379963558044E+03
             5.05000395232063238E+03   5.05000410477617424E+03   5.05000425638291108E+03
 ETA=    5   5.09998873873441698E+03   5.09997532888609203E+03   5.09997181276008178E+03   5.09997530938337241E+03   5.09998102862685300E+03
             5.09998642481251409E+03   5.09999060049660147E+03   5.09999351787707019E+03   5.09999556751739146E+03   5.09999699458509531E+03
             5.09999795124762568E+03   5.09999859443251535E+03   5.09999903297920810E+03   5.09999933940945448E+03   5.09999955056245290E+03
             5.09999969468001837E+03   5.09999979267018716E+03   5.09999985922067026E+03   5.09999990440752481E+03   5.09999993508808529E+03
             5.09999995591982406E+03   5.09999997006483954E+03   5.09999997966987758E+03   5.09999998619236158E+03   5.09999999062177540E+03
             5.09999999362992912E+03   5.09999999567296163E+03   5.09999999706059407E+03
 ETA=    6   5.14998328021884208E+03   5.14995332038253855E+03   5.14994270163204055E+03   5.14994959120226395E+03   5.14996337254129139E+03
             5.14997558583514638E+03   5.14998390153796390E+03   5.14998906511559289E+03   5.14999228984449292E+03   5.14999430020302862E+03
             5.14999551660705674E+03   5.14999624601180858E+03   5.14999667830441103E+03   5.14999692775122185E+03   5.14999705347649251E+03
             5.14999709539330252E+03   5.14999708041448685E+03   5.14999702628801697E+03   5.14999694470257418E+03   5.14999684345182595E+03
             5.14999672784231007E+03   5.14999660159117684E+03   5.14999646740035041E+03   5.14999632732698683E+03   5.14999618302468480E+03
             5.14999603590143033E+03   5.14999588722329008E+03   5.14999573818219233E+03
 ETA=    7   5.19996745070699853E+03   5.19992788631313306E+03   5.19991647176062543E+03   5.19993029970071711E+03   5.19995265322671185E+03
             5.19997052752932086E+03   5.19998145862538331E+03   5.19998763092423542E+03   5.19999119528251049E+03   5.19999327379635724E+03
             5.19999445178148108E+03   5.19999510279518927E+03   5.19999544444351977E+03   5.19999560082936205E+03   5.19999563574839067E+03
             5.19999558988827175E+03   5.19999548943040281E+03   5.19999535103606831E+03   5.19999518541877387E+03   5.19999499964543429E+03
             5.19999479855517347E+03   5.19999458562630662E+03   5.19999436351089844E+03   5.19999413436873783E+03   5.19999390007873899E+03
             5.19999366237379400E+03   5.19999342292702204E+03   5.19999318340628997E+03
 ETA=    8   5.24993942320753104E+03   5.24990680116492604E+03   5.24990625277728304E+03   5.24992999779782895E+03   5.24995757475224218E+03
             5.24997630304724953E+03   5.24998610363970238E+03   5.24999095009322082E+03   5.24999352003098829E+03   5.24999493543342578E+03
             5.24999569381837591E+03   5.24999608254100713E+03   5.24999626115896717E+03   5.24999631658811359E+03   5.24999629249706504E+03
             5.24999621582954023E+03   5.24999610348893566E+03   5.24999596601251778E+03   5.24999581009145277E+03   5.24999564013048712E+03
             5.24999545918107378E+03   5.24999526949725350E+03   5.24999507287077995E+03   5.24999487083625536E+03   5.24999466479854345E+03
             5.24999445611257033E+03   5.24999424613328847E+03   5.24999403624630941E+03
 ETA=    9   5.30000000000000000E+03   5.30000026267656358E+03   5.29999994811535817E+03   5.30000000750044455E+03   5.29999999902227864E+03
             5.30000000012619603E+03   5.29999999998434669E+03   5.29999999999990723E+03   5.30000000000002274E+03   5.29999999999999727E+03
             5.30000000000000000E+03   5.30000000000000000E+03   5.30000000000000000E+03   5.30000000000000000E+03   5.30000000000000000E+03
             5.30000000000000000E+03   5.30000000000000000E+03   5.30000000000000000E+03   5.30000000000000000E+03   5.30000000000000000E+03
             5.30000000000000000E+03   5.30000000000000000E+03   5.30000000000000000E+03   5.30000000000000000E+03   5.30000000000000000E+03
             5.30000000000000000E+03   5.30000000000000000E+03   5.30000000000000000E+03
