Ident = #Delft3D-FLOW  .03.02 3.39.15.00#
Runid = #n15#
Commnt=                              
Runtxt= #Neap tide simulation          #
        #Spin-up barotropic tide during#
        #2.25 days with 16 layers.     #
        #Nor river, no discharge.      #
Filcco= #155x235.grd#
Fmtcco= #FR#
Anglat= 5.2500000e+001 
Grdang= 0.0000000e+000 
Filgrd= #155x235.enc#
Fmtgrd= #FR#
MNKmax= 156 236 16
Thick = 6.2500000e+000 
        6.2500000e+000 
        6.2500000e+000 
        6.2500000e+000 
        6.2500000e+000 
        6.2500000e+000 
        6.2500000e+000 
        6.2500000e+000 
        6.2500000e+000 
        6.2500000e+000 
        6.2500000e+000 
        6.2500000e+000 
        6.2500000e+000 
        6.2500000e+000 
        6.2500000e+000 
        6.2500000e+000 
Fildep= #155x235.dep#
Fmtdep= #FR#
Commnt=                              
Fildry= #longch1.dry#
Fmtdry= #FR#
Filtd = ##
Fmttd = #FR#
Nambar= #                    #
MNbar = [ ] [ ] # #
MNwlos= [ ] [ ]
Commnt=                              
Itdate= #2004-01-01#
Tunit = #M#
Tstart= 2.5200000e+004 
Tstop = 2.7360000e+004 
Dt    = 2.0000000e+000 
Tzone = 0
Commnt=                              
Sub1  = #S   #
Sub2  = #   #
Namc1 = #                    #
Namc2 = #                    #
Namc3 = #                    #
Namc4 = #                    #
Namc5 = #                    #
Wnsvwp= #N#
Filwnd= ##
Fmtwnd= #FR#
Wndint= #Y#
Commnt=                              
Restid= #n11.20040118.120000#
Commnt=                              
Filbnd= #155x235_0.bnd#
Fmtbnd= #FR#
FilbcH= #Depth_20_ks_0.125_amplitude_0.75.bch#
FmtbcH= #FR#
FilbcT= ##
FmtbcT= #FR#
FilbcQ= ##
FmtbcQ= #FR#
Filana= ##
Filcor= ##
FilbcC= #34.5.bcc#
FmtbcC= #FR#
Rettis= 1.2000000e+002 
        1.2000000e+002 
        1.2000000e+002 
        1.2000000e+002 
        1.2000000e+002 
        1.2000000e+002 
        1.2000000e+002 
        1.2000000e+002 
        1.2000000e+002 
        1.2000000e+002 
        1.2000000e+002 
        1.2000000e+002 
        1.2000000e+002 
        1.2000000e+002 
        1.2000000e+002 
        1.2000000e+002 
        1.2000000e+002 
        1.2000000e+002 
        1.2000000e+002 
        1.2000000e+002 
        1.2000000e+002 
        1.2000000e+002 
        1.2000000e+002 
        1.2000000e+002 
        1.2000000e+002 
        1.2000000e+002 
        1.2000000e+002 
        1.2000000e+002 
        1.2000000e+002 
        1.2000000e+002 
        1.2000000e+002 
        1.2000000e+002 
        1.2000000e+002 
        1.2000000e+002 
        1.2000000e+002 
        1.2000000e+002 
        1.2000000e+002 
        1.2000000e+002 
        1.2000000e+002 
        1.2000000e+002 
        1.2000000e+002 
        1.2000000e+002 
        1.2000000e+002 
        1.2000000e+002 
        1.2000000e+002 
        1.2000000e+002 
        1.2000000e+002 
        1.2000000e+002 
        1.2000000e+002 
        1.2000000e+002 
        1.2000000e+002 
        1.2000000e+002 
        1.2000000e+002 
        1.2000000e+002 
        1.2000000e+002 
        1.2000000e+002 
        1.2000000e+002 
        1.2000000e+002 
        1.2000000e+002 
        1.2000000e+002 
        1.2000000e+002 
        1.2000000e+002 
        1.2000000e+002 
        1.2000000e+002 
        1.2000000e+002 
        1.2000000e+002 
        1.2000000e+002 
        1.2000000e+002 
        1.2000000e+002 
        1.2000000e+002 
        1.2000000e+002 
        1.2000000e+002 
        1.2000000e+002 
        1.2000000e+002 
        1.2000000e+002 
        1.2000000e+002 
        1.2000000e+002 
        1.2000000e+002 
        1.2000000e+002 
        1.2000000e+002 
        1.2000000e+002 
        1.2000000e+002 
        1.2000000e+002 
        1.2000000e+002 
        1.2000000e+002 
        1.2000000e+002 
        1.2000000e+002 
        1.2000000e+002 
        1.2000000e+002 
        1.2000000e+002 
        1.2000000e+002 
        1.2000000e+002 
        1.2000000e+002 
        1.2000000e+002 
        1.2000000e+002 
        1.2000000e+002 
        1.2000000e+002 
        1.2000000e+002 
        1.2000000e+002 
        1.2000000e+002 
        1.2000000e+002 
        1.2000000e+002 
        1.2000000e+002 
        1.2000000e+002 
        1.2000000e+002 
        1.2000000e+002 
        1.2000000e+002 
        1.2000000e+002 
        1.2000000e+002 
        1.2000000e+002 
        1.2000000e+002 
        1.2000000e+002 
        1.2000000e+002 
        1.2000000e+002 
        1.2000000e+002 
        1.2000000e+002 
        1.2000000e+002 
        1.2000000e+002 
        1.2000000e+002 
        1.2000000e+002 
        1.2000000e+002 
        1.2000000e+002 
        1.2000000e+002 
        1.2000000e+002 
        1.2000000e+002 
        1.2000000e+002 
        1.2000000e+002 
        1.2000000e+002 
        1.2000000e+002 
        1.2000000e+002 
        1.2000000e+002 
        1.2000000e+002 
        1.2000000e+002 
        1.2000000e+002 
        1.2000000e+002 
        1.2000000e+002 
        1.2000000e+002 
        1.2000000e+002 
        1.2000000e+002 
        1.2000000e+002 
        1.2000000e+002 
        1.2000000e+002 
        1.2000000e+002 
        1.2000000e+002 
        1.2000000e+002 
        1.2000000e+002 
        1.2000000e+002 
        1.2000000e+002 
        1.2000000e+002 
        1.2000000e+002 
        1.2000000e+002 
        1.2000000e+002 
Rettib= 1.2000000e+002 
        1.2000000e+002 
        1.2000000e+002 
        1.2000000e+002 
        1.2000000e+002 
        1.2000000e+002 
        1.2000000e+002 
        1.2000000e+002 
        1.2000000e+002 
        1.2000000e+002 
        1.2000000e+002 
        1.2000000e+002 
        1.2000000e+002 
        1.2000000e+002 
        1.2000000e+002 
        1.2000000e+002 
        1.2000000e+002 
        1.2000000e+002 
        1.2000000e+002 
        1.2000000e+002 
        1.2000000e+002 
        1.2000000e+002 
        1.2000000e+002 
        1.2000000e+002 
        1.2000000e+002 
        1.2000000e+002 
        1.2000000e+002 
        1.2000000e+002 
        1.2000000e+002 
        1.2000000e+002 
        1.2000000e+002 
        1.2000000e+002 
        1.2000000e+002 
        1.2000000e+002 
        1.2000000e+002 
        1.2000000e+002 
        1.2000000e+002 
        1.2000000e+002 
        1.2000000e+002 
        1.2000000e+002 
        1.2000000e+002 
        1.2000000e+002 
        1.2000000e+002 
        1.2000000e+002 
        1.2000000e+002 
        1.2000000e+002 
        1.2000000e+002 
        1.2000000e+002 
        1.2000000e+002 
        1.2000000e+002 
        1.2000000e+002 
        1.2000000e+002 
        1.2000000e+002 
        1.2000000e+002 
        1.2000000e+002 
        1.2000000e+002 
        1.2000000e+002 
        1.2000000e+002 
        1.2000000e+002 
        1.2000000e+002 
        1.2000000e+002 
        1.2000000e+002 
        1.2000000e+002 
        1.2000000e+002 
        1.2000000e+002 
        1.2000000e+002 
        1.2000000e+002 
        1.2000000e+002 
        1.2000000e+002 
        1.2000000e+002 
        1.2000000e+002 
        1.2000000e+002 
        1.2000000e+002 
        1.2000000e+002 
        1.2000000e+002 
        1.2000000e+002 
        1.2000000e+002 
        1.2000000e+002 
        1.2000000e+002 
        1.2000000e+002 
        1.2000000e+002 
        1.2000000e+002 
        1.2000000e+002 
        1.2000000e+002 
        1.2000000e+002 
        1.2000000e+002 
        1.2000000e+002 
        1.2000000e+002 
        1.2000000e+002 
        1.2000000e+002 
        1.2000000e+002 
        1.2000000e+002 
        1.2000000e+002 
        1.2000000e+002 
        1.2000000e+002 
        1.2000000e+002 
        1.2000000e+002 
        1.2000000e+002 
        1.2000000e+002 
        1.2000000e+002 
        1.2000000e+002 
        1.2000000e+002 
        1.2000000e+002 
        1.2000000e+002 
        1.2000000e+002 
        1.2000000e+002 
        1.2000000e+002 
        1.2000000e+002 
        1.2000000e+002 
        1.2000000e+002 
        1.2000000e+002 
        1.2000000e+002 
        1.2000000e+002 
        1.2000000e+002 
        1.2000000e+002 
        1.2000000e+002 
        1.2000000e+002 
        1.2000000e+002 
        1.2000000e+002 
        1.2000000e+002 
        1.2000000e+002 
        1.2000000e+002 
        1.2000000e+002 
        1.2000000e+002 
        1.2000000e+002 
        1.2000000e+002 
        1.2000000e+002 
        1.2000000e+002 
        1.2000000e+002 
        1.2000000e+002 
        1.2000000e+002 
        1.2000000e+002 
        1.2000000e+002 
        1.2000000e+002 
        1.2000000e+002 
        1.2000000e+002 
        1.2000000e+002 
        1.2000000e+002 
        1.2000000e+002 
        1.2000000e+002 
        1.2000000e+002 
        1.2000000e+002 
        1.2000000e+002 
        1.2000000e+002 
        1.2000000e+002 
        1.2000000e+002 
        1.2000000e+002 
        1.2000000e+002 
        1.2000000e+002 
        1.2000000e+002 
        1.2000000e+002 
        1.2000000e+002 
Commnt=                              
Ag    = 9.8100004e+000 
Rhow  = 1.0000000e+003 
Alph0 = [.]
Tempw = 1.5000000e+001 
Salw  = 3.1000000e+001 
Rouwav= #    #
Wstres= 6.3000002e-004  0.0000000e+000  7.2300001e-003  1.0000000e+002 
Rhoa  = 1.0000000e+000 
Betac = 5.0000000e-001 
Equili= #N#
Tkemod= #K-epsilon   #
Ktemp = 0
Fclou = 0.0000000e+000 
Sarea = 0.0000000e+000 
Filtmp= ##
Fmttmp= #FR#
Temint= #Y#
Tstmp = [.] [.]
Commnt=                              
Roumet= #W#
Filrgh= ##
Fmtrgh= #FR#
Ccofu = 1.2500000e-001 
Ccofv = 1.2500000e-001 
Xlo   = 0.0000000e+000 
Filedy= ##
Fmtedy= #FR#
Vicouv= 1.0000000e+000 
Dicouv= 1.0000000e+000 
Vicoww= 9.9999997e-005 
Dicoww= 9.9999997e-005 
Irov  = 2
Z0v   = [.]
Cmu   = [.]
Cpran = [.]
Commnt=                              
Iter  =      2
Dryflp= #YES#
Dpsopt= #MAX#
Dpuopt= #MEAN#
Dryflc= 1.0000000e-001 
Dco   = -9.9900000e+002
Tlfsmo= 6.0000000e+001 
ThetQH= 0.0000000e+000 
Forfuv= #Y#
Forfww= #Y#
Sigcor= #Y#
Trasol= #Cyclic-method#
Momsol= #Cyclic#
Commnt=                              
Filsrc= #Rhine.src#
Fmtsrc= #FR#
Fildis= #Q2000.dis#
Fmtdis= #FR#
Commnt=                              no. observation points: 198
Filsta= #155x235_198.obs#
Fmtsta= #FR#
Filpar= ##
Fmtpar= #FR#
Commnt=                              
Eps   = [.]
Commnt=                              
Commnt=                              no. cross-sections: 210
Filcrs= #boxes.crs#
Fmtcrs= #FR#
Commnt=                              
SMhydr= #YYYYY#     
SMderv= #YYYYYY#    
SMproc= #YYYYYYYYYY#
PMhydr= #YYYYYY#    
PMderv= #YYY#       
PMproc= #YYYYYYYYYY#
SHhydr= #YYYY#      
SHderv= #YYYYY#     
SHproc= #YYYYYYYYYY#
SHflux= #YYYY#      
PHhydr= #YYYYYY#    
PHderv= #YYY#       
PHproc= #YYYYYYYYYY#
PHflux= #YYYY#      
Commnt=                              attribute file fourier analyzed
Filfou= #n05_S2.fou#
Online= #N#
Prmap = [.]
Prhis = [.] [.] [.]
Flmap = 2.5200000e+004  2.0000000e+001  2.7360000e+004 
Flhis = 2.5200000e+004  0.0000000e+000  2.7360000e+004 
Flpp  = 2.5200000e+004  0.0000000e+000  2.7360000e+004 
Flrst = 0.0000000e+000 
Commnt=                              
BarocP= #N#
Cstbnd= #yes#
Commnt=                              
