*
* Deltares, Delft3D-QUICKIN Version 4.18.01.18383, Sep  7 2011, 14:23:24
* File creation date: 2013-05-10, 16:40:36
*
