                                  MODFLOW-2005     
      U.S. GEOLOGICAL SURVEY MODULAR FINITE-DIFFERENCE GROUND-WATER FLOW MODEL
                            VERSION 1.8.00 12/18/2009

 LIST FILE: onttrekking.list
                         UNIT    2

 OPENING onttrekking.dis
 FILE TYPE:DIS   UNIT   11   STATUS:OLD    
 FORMAT:FORMATTED              ACCESS:SEQUENTIAL          

 OPENING onttrekking.bas
 FILE TYPE:BAS6   UNIT   13   STATUS:OLD    
 FORMAT:FORMATTED              ACCESS:SEQUENTIAL          

 OPENING onttrekking.lpf
 FILE TYPE:LPF   UNIT   15   STATUS:OLD    
 FORMAT:FORMATTED              ACCESS:SEQUENTIAL          

 OPENING onttrekking.wel
 FILE TYPE:WEL   UNIT   20   STATUS:OLD    
 FORMAT:FORMATTED              ACCESS:SEQUENTIAL          

 OPENING onttrekking.oc
 FILE TYPE:OC   UNIT   14   STATUS:OLD    
 FORMAT:FORMATTED              ACCESS:SEQUENTIAL          

 OPENING onttrekking.hds
 FILE TYPE:DATA(BINARY)   UNIT   51   STATUS:REPLACE
 FORMAT:BINARY                 ACCESS:SEQUENTIAL          

 OPENING onttrekking.ddn
 FILE TYPE:DATA(BINARY)   UNIT   52   STATUS:REPLACE
 FORMAT:BINARY                 ACCESS:SEQUENTIAL          

 OPENING onttrekking.cbc
 FILE TYPE:DATA(BINARY)   UNIT   53   STATUS:REPLACE
 FORMAT:BINARY                 ACCESS:SEQUENTIAL          

 OPENING onttrekking.pcg
 FILE TYPE:PCG   UNIT   27   STATUS:OLD    
 FORMAT:FORMATTED              ACCESS:SEQUENTIAL          

 BAS -- BASIC PACKAGE, VERSION 7, 5/2/2005 INPUT READ FROM UNIT   13

 DISCRETIZATION INPUT DATA READ FROM UNIT   11
 # Discretization file for MODFLOW, generated by Flopy.
   36 LAYERS         1 ROWS        36 COLUMNS
   30 STRESS PERIOD(S) IN SIMULATION
 MODEL TIME UNIT IS DAYS
 MODEL LENGTH UNIT IS METERS
  Confining bed flag for each layer:
   0   0   0   0   0   0   0   0   0   0   0   0   0   0   0   0   0   0   0   0
   0   0   0   0   0   0   0   0   0   0   0   0   0   0   0   0



                               DELR
 READING ON UNIT   11 WITH FORMAT: (36E15.6)           

                     DELC =   1.00000    

 TOP ELEVATION OF LAYER 1 = -0.350000    

   MODEL LAYER BOTTOM EL. =  -7.35000     FOR LAYER   1

   MODEL LAYER BOTTOM EL. =  -7.85000     FOR LAYER   2

   MODEL LAYER BOTTOM EL. =  -8.35000     FOR LAYER   3

   MODEL LAYER BOTTOM EL. =  -8.85000     FOR LAYER   4

   MODEL LAYER BOTTOM EL. =  -9.35000     FOR LAYER   5

   MODEL LAYER BOTTOM EL. =  -9.85000     FOR LAYER   6

   MODEL LAYER BOTTOM EL. =  -10.3500     FOR LAYER   7

   MODEL LAYER BOTTOM EL. =  -10.8500     FOR LAYER   8

   MODEL LAYER BOTTOM EL. =  -11.3500     FOR LAYER   9

   MODEL LAYER BOTTOM EL. =  -11.8500     FOR LAYER  10

   MODEL LAYER BOTTOM EL. =  -12.3500     FOR LAYER  11

   MODEL LAYER BOTTOM EL. =  -12.8500     FOR LAYER  12

   MODEL LAYER BOTTOM EL. =  -13.3500     FOR LAYER  13

   MODEL LAYER BOTTOM EL. =  -13.8500     FOR LAYER  14

   MODEL LAYER BOTTOM EL. =  -14.3500     FOR LAYER  15

   MODEL LAYER BOTTOM EL. =  -14.8500     FOR LAYER  16

   MODEL LAYER BOTTOM EL. =  -15.3500     FOR LAYER  17

   MODEL LAYER BOTTOM EL. =  -15.8500     FOR LAYER  18

   MODEL LAYER BOTTOM EL. =  -16.3500     FOR LAYER  19

   MODEL LAYER BOTTOM EL. =  -16.8500     FOR LAYER  20

   MODEL LAYER BOTTOM EL. =  -17.3500     FOR LAYER  21

   MODEL LAYER BOTTOM EL. =  -17.8500     FOR LAYER  22

   MODEL LAYER BOTTOM EL. =  -18.3500     FOR LAYER  23

   MODEL LAYER BOTTOM EL. =  -18.8500     FOR LAYER  24

   MODEL LAYER BOTTOM EL. =  -19.3500     FOR LAYER  25

   MODEL LAYER BOTTOM EL. =  -19.8500     FOR LAYER  26

   MODEL LAYER BOTTOM EL. =  -20.3500     FOR LAYER  27

   MODEL LAYER BOTTOM EL. =  -20.8500     FOR LAYER  28

   MODEL LAYER BOTTOM EL. =  -21.3500     FOR LAYER  29

   MODEL LAYER BOTTOM EL. =  -21.8500     FOR LAYER  30

   MODEL LAYER BOTTOM EL. =  -22.3500     FOR LAYER  31

   MODEL LAYER BOTTOM EL. =  -22.8500     FOR LAYER  32

   MODEL LAYER BOTTOM EL. =  -23.3500     FOR LAYER  33

   MODEL LAYER BOTTOM EL. =  -23.8500     FOR LAYER  34

   MODEL LAYER BOTTOM EL. =  -24.3500     FOR LAYER  35

   MODEL LAYER BOTTOM EL. =  -24.8500     FOR LAYER  36


 STRESS PERIOD     LENGTH       TIME STEPS     MULTIPLIER FOR DELT    SS FLAG
 ----------------------------------------------------------------------------
        1         1.000000          6                    1.000         TR
        2         1.000000          6                    1.000         TR
        3         1.000000          6                    1.000         TR
        4         1.000000          6                    1.000         TR
        5         1.000000          6                    1.000         TR
        6         1.000000          6                    1.000         TR
        7         1.000000          6                    1.000         TR
        8         1.000000          6                    1.000         TR
        9         1.000000          6                    1.000         TR
       10         1.000000          6                    1.000         TR
       11         1.000000          6                    1.000         TR
       12         1.000000          6                    1.000         TR
       13         1.000000          6                    1.000         TR
       14         1.000000          6                    1.000         TR
       15         1.000000          6                    1.000         TR
       16         1.000000          6                    1.000         TR
       17         1.000000          6                    1.000         TR
       18         1.000000          6                    1.000         TR
       19         1.000000          6                    1.000         TR
       20         1.000000          6                    1.000         TR
       21         1.000000          6                    1.000         TR
       22         1.000000          6                    1.000         TR
       23         1.000000          6                    1.000         TR
       24         1.000000          6                    1.000         TR
       25         1.000000          6                    1.000         TR
       26         1.000000          6                    1.000         TR
       27         1.000000          6                    1.000         TR
       28         1.000000          6                    1.000         TR
       29         1.000000          6                    1.000         TR
       30         1.000000          6                    1.000         TR

 TRANSIENT SIMULATION



 
 # Basic package file for MODFLOW, generated by Flopy.                           
 THE FREE FORMAT OPTION HAS BEEN SELECTED



                     BOUNDARY ARRAY FOR LAYER   1
 READING ON UNIT   13 WITH FORMAT: (36I10)             



                     BOUNDARY ARRAY FOR LAYER   2
 READING ON UNIT   13 WITH FORMAT: (36I10)             



                     BOUNDARY ARRAY FOR LAYER   3
 READING ON UNIT   13 WITH FORMAT: (36I10)             



                     BOUNDARY ARRAY FOR LAYER   4
 READING ON UNIT   13 WITH FORMAT: (36I10)             



                     BOUNDARY ARRAY FOR LAYER   5
 READING ON UNIT   13 WITH FORMAT: (36I10)             



                     BOUNDARY ARRAY FOR LAYER   6
 READING ON UNIT   13 WITH FORMAT: (36I10)             



                     BOUNDARY ARRAY FOR LAYER   7
 READING ON UNIT   13 WITH FORMAT: (36I10)             



                     BOUNDARY ARRAY FOR LAYER   8
 READING ON UNIT   13 WITH FORMAT: (36I10)             



                     BOUNDARY ARRAY FOR LAYER   9
 READING ON UNIT   13 WITH FORMAT: (36I10)             



                     BOUNDARY ARRAY FOR LAYER  10
 READING ON UNIT   13 WITH FORMAT: (36I10)             



                     BOUNDARY ARRAY FOR LAYER  11
 READING ON UNIT   13 WITH FORMAT: (36I10)             



                     BOUNDARY ARRAY FOR LAYER  12
 READING ON UNIT   13 WITH FORMAT: (36I10)             



                     BOUNDARY ARRAY FOR LAYER  13
 READING ON UNIT   13 WITH FORMAT: (36I10)             



                     BOUNDARY ARRAY FOR LAYER  14
 READING ON UNIT   13 WITH FORMAT: (36I10)             



                     BOUNDARY ARRAY FOR LAYER  15
 READING ON UNIT   13 WITH FORMAT: (36I10)             



                     BOUNDARY ARRAY FOR LAYER  16
 READING ON UNIT   13 WITH FORMAT: (36I10)             



                     BOUNDARY ARRAY FOR LAYER  17
 READING ON UNIT   13 WITH FORMAT: (36I10)             



                     BOUNDARY ARRAY FOR LAYER  18
 READING ON UNIT   13 WITH FORMAT: (36I10)             



                     BOUNDARY ARRAY FOR LAYER  19
 READING ON UNIT   13 WITH FORMAT: (36I10)             



                     BOUNDARY ARRAY FOR LAYER  20
 READING ON UNIT   13 WITH FORMAT: (36I10)             



                     BOUNDARY ARRAY FOR LAYER  21
 READING ON UNIT   13 WITH FORMAT: (36I10)             



                     BOUNDARY ARRAY FOR LAYER  22
 READING ON UNIT   13 WITH FORMAT: (36I10)             



                     BOUNDARY ARRAY FOR LAYER  23
 READING ON UNIT   13 WITH FORMAT: (36I10)             



                     BOUNDARY ARRAY FOR LAYER  24
 READING ON UNIT   13 WITH FORMAT: (36I10)             



                     BOUNDARY ARRAY FOR LAYER  25
 READING ON UNIT   13 WITH FORMAT: (36I10)             



                     BOUNDARY ARRAY FOR LAYER  26
 READING ON UNIT   13 WITH FORMAT: (36I10)             



                     BOUNDARY ARRAY FOR LAYER  27
 READING ON UNIT   13 WITH FORMAT: (36I10)             



                     BOUNDARY ARRAY FOR LAYER  28
 READING ON UNIT   13 WITH FORMAT: (36I10)             



                     BOUNDARY ARRAY FOR LAYER  29
 READING ON UNIT   13 WITH FORMAT: (36I10)             



                     BOUNDARY ARRAY FOR LAYER  30
 READING ON UNIT   13 WITH FORMAT: (36I10)             



                     BOUNDARY ARRAY FOR LAYER  31
 READING ON UNIT   13 WITH FORMAT: (36I10)             



                     BOUNDARY ARRAY FOR LAYER  32
 READING ON UNIT   13 WITH FORMAT: (36I10)             



                     BOUNDARY ARRAY FOR LAYER  33
 READING ON UNIT   13 WITH FORMAT: (36I10)             



                     BOUNDARY ARRAY FOR LAYER  34
 READING ON UNIT   13 WITH FORMAT: (36I10)             



                     BOUNDARY ARRAY FOR LAYER  35
 READING ON UNIT   13 WITH FORMAT: (36I10)             



                     BOUNDARY ARRAY FOR LAYER  36
 READING ON UNIT   13 WITH FORMAT: (36I10)             

 AQUIFER HEAD WILL BE SET TO  -999.99     AT ALL NO-FLOW NODES (IBOUND=0).



                       INITIAL HEAD FOR LAYER   1
 READING ON UNIT   13 WITH FORMAT: (36E15.6)           



                       INITIAL HEAD FOR LAYER   2
 READING ON UNIT   13 WITH FORMAT: (36E15.6)           



                       INITIAL HEAD FOR LAYER   3
 READING ON UNIT   13 WITH FORMAT: (36E15.6)           



                       INITIAL HEAD FOR LAYER   4
 READING ON UNIT   13 WITH FORMAT: (36E15.6)           



                       INITIAL HEAD FOR LAYER   5
 READING ON UNIT   13 WITH FORMAT: (36E15.6)           



                       INITIAL HEAD FOR LAYER   6
 READING ON UNIT   13 WITH FORMAT: (36E15.6)           



                       INITIAL HEAD FOR LAYER   7
 READING ON UNIT   13 WITH FORMAT: (36E15.6)           



                       INITIAL HEAD FOR LAYER   8
 READING ON UNIT   13 WITH FORMAT: (36E15.6)           



                       INITIAL HEAD FOR LAYER   9
 READING ON UNIT   13 WITH FORMAT: (36E15.6)           



                       INITIAL HEAD FOR LAYER  10
 READING ON UNIT   13 WITH FORMAT: (36E15.6)           



                       INITIAL HEAD FOR LAYER  11
 READING ON UNIT   13 WITH FORMAT: (36E15.6)           



                       INITIAL HEAD FOR LAYER  12
 READING ON UNIT   13 WITH FORMAT: (36E15.6)           



                       INITIAL HEAD FOR LAYER  13
 READING ON UNIT   13 WITH FORMAT: (36E15.6)           



                       INITIAL HEAD FOR LAYER  14
 READING ON UNIT   13 WITH FORMAT: (36E15.6)           



                       INITIAL HEAD FOR LAYER  15
 READING ON UNIT   13 WITH FORMAT: (36E15.6)           



                       INITIAL HEAD FOR LAYER  16
 READING ON UNIT   13 WITH FORMAT: (36E15.6)           



                       INITIAL HEAD FOR LAYER  17
 READING ON UNIT   13 WITH FORMAT: (36E15.6)           



                       INITIAL HEAD FOR LAYER  18
 READING ON UNIT   13 WITH FORMAT: (36E15.6)           



                       INITIAL HEAD FOR LAYER  19
 READING ON UNIT   13 WITH FORMAT: (36E15.6)           



                       INITIAL HEAD FOR LAYER  20
 READING ON UNIT   13 WITH FORMAT: (36E15.6)           



                       INITIAL HEAD FOR LAYER  21
 READING ON UNIT   13 WITH FORMAT: (36E15.6)           



                       INITIAL HEAD FOR LAYER  22
 READING ON UNIT   13 WITH FORMAT: (36E15.6)           



                       INITIAL HEAD FOR LAYER  23
 READING ON UNIT   13 WITH FORMAT: (36E15.6)           



                       INITIAL HEAD FOR LAYER  24
 READING ON UNIT   13 WITH FORMAT: (36E15.6)           



                       INITIAL HEAD FOR LAYER  25
 READING ON UNIT   13 WITH FORMAT: (36E15.6)           



                       INITIAL HEAD FOR LAYER  26
 READING ON UNIT   13 WITH FORMAT: (36E15.6)           



                       INITIAL HEAD FOR LAYER  27
 READING ON UNIT   13 WITH FORMAT: (36E15.6)           



                       INITIAL HEAD FOR LAYER  28
 READING ON UNIT   13 WITH FORMAT: (36E15.6)           



                       INITIAL HEAD FOR LAYER  29
 READING ON UNIT   13 WITH FORMAT: (36E15.6)           



                       INITIAL HEAD FOR LAYER  30
 READING ON UNIT   13 WITH FORMAT: (36E15.6)           



                       INITIAL HEAD FOR LAYER  31
 READING ON UNIT   13 WITH FORMAT: (36E15.6)           



                       INITIAL HEAD FOR LAYER  32
 READING ON UNIT   13 WITH FORMAT: (36E15.6)           



                       INITIAL HEAD FOR LAYER  33
 READING ON UNIT   13 WITH FORMAT: (36E15.6)           



                       INITIAL HEAD FOR LAYER  34
 READING ON UNIT   13 WITH FORMAT: (36E15.6)           



                       INITIAL HEAD FOR LAYER  35
 READING ON UNIT   13 WITH FORMAT: (36E15.6)           



                       INITIAL HEAD FOR LAYER  36
 READING ON UNIT   13 WITH FORMAT: (36E15.6)           
 # Output control package file for MODFLOW, generated by Flopy.

 OUTPUT CONTROL IS SPECIFIED ONLY AT TIME STEPS FOR WHICH OUTPUT IS DESIRED
 COMPACT CELL-BY-CELL BUDGET FILES WILL BE WRITTEN
 AUXILIARY DATA WILL BE SAVED IN CELL-BY-CELL BUDGET FILES
 HEAD PRINT FORMAT CODE IS   0    DRAWDOWN PRINT FORMAT CODE IS   0
 HEADS WILL BE SAVED ON UNIT   51    DRAWDOWNS WILL BE SAVED ON UNIT   52

 LPF -- LAYER-PROPERTY FLOW PACKAGE, VERSION 7, 5/2/2005
         INPUT READ FROM UNIT   15
 # LPF for MODFLOW, generated by Flopy.
 CELL-BY-CELL FLOWS WILL BE SAVED ON UNIT   53
 HEAD AT CELLS THAT CONVERT TO DRY= -1.00000E+30
 No named parameters
 CONSTANTCV OPTION:
 Constant vertical conductance for convertible layers

   LAYER FLAGS:
 LAYER       LAYTYP        LAYAVG         CHANI        LAYVKA        LAYWET
 ---------------------------------------------------------------------------
    1             0             2     1.000E+00             0             0
    2             0             2     1.000E+00             0             0
    3             0             2     1.000E+00             0             0
    4             0             2     1.000E+00             0             0
    5             0             2     1.000E+00             0             0
    6             0             2     1.000E+00             0             0
    7             0             2     1.000E+00             0             0
    8             0             2     1.000E+00             0             0
    9             0             2     1.000E+00             0             0
   10             0             2     1.000E+00             0             0
   11             0             2     1.000E+00             0             0
   12             0             2     1.000E+00             0             0
   13             0             2     1.000E+00             0             0
   14             0             2     1.000E+00             0             0
   15             0             2     1.000E+00             0             0
   16             0             2     1.000E+00             0             0
   17             0             2     1.000E+00             0             0
   18             0             2     1.000E+00             0             0
   19             0             2     1.000E+00             0             0
   20             0             2     1.000E+00             0             0
   21             0             2     1.000E+00             0             0
   22             0             2     1.000E+00             0             0
   23             0             2     1.000E+00             0             0
   24             0             2     1.000E+00             0             0
   25             0             2     1.000E+00             0             0
   26             0             2     1.000E+00             0             0
   27             0             2     1.000E+00             0             0
   28             0             2     1.000E+00             0             0
   29             0             2     1.000E+00             0             0
   30             0             2     1.000E+00             0             0
   31             0             2     1.000E+00             0             0
   32             0             2     1.000E+00             0             0
   33             0             2     1.000E+00             0             0
   34             0             2     1.000E+00             0             0
   35             0             2     1.000E+00             0             0
   36             0             2     1.000E+00             0             0

   INTERPRETATION OF LAYER FLAGS:
                        INTERBLOCK     HORIZONTAL    DATA IN
         LAYER TYPE   TRANSMISSIVITY   ANISOTROPY   ARRAY VKA   WETTABILITY
 LAYER      (LAYTYP)      (LAYAVG)       (CHANI)      (LAYVKA)      (LAYWET)
 ---------------------------------------------------------------------------
    1      CONFINED     LOG-ARITH     1.000E+00    VERTICAL K  NON-WETTABLE
    2      CONFINED     LOG-ARITH     1.000E+00    VERTICAL K  NON-WETTABLE
    3      CONFINED     LOG-ARITH     1.000E+00    VERTICAL K  NON-WETTABLE
    4      CONFINED     LOG-ARITH     1.000E+00    VERTICAL K  NON-WETTABLE
    5      CONFINED     LOG-ARITH     1.000E+00    VERTICAL K  NON-WETTABLE
    6      CONFINED     LOG-ARITH     1.000E+00    VERTICAL K  NON-WETTABLE
    7      CONFINED     LOG-ARITH     1.000E+00    VERTICAL K  NON-WETTABLE
    8      CONFINED     LOG-ARITH     1.000E+00    VERTICAL K  NON-WETTABLE
    9      CONFINED     LOG-ARITH     1.000E+00    VERTICAL K  NON-WETTABLE
   10      CONFINED     LOG-ARITH     1.000E+00    VERTICAL K  NON-WETTABLE
   11      CONFINED     LOG-ARITH     1.000E+00    VERTICAL K  NON-WETTABLE
   12      CONFINED     LOG-ARITH     1.000E+00    VERTICAL K  NON-WETTABLE
   13      CONFINED     LOG-ARITH     1.000E+00    VERTICAL K  NON-WETTABLE
   14      CONFINED     LOG-ARITH     1.000E+00    VERTICAL K  NON-WETTABLE
   15      CONFINED     LOG-ARITH     1.000E+00    VERTICAL K  NON-WETTABLE
   16      CONFINED     LOG-ARITH     1.000E+00    VERTICAL K  NON-WETTABLE
   17      CONFINED     LOG-ARITH     1.000E+00    VERTICAL K  NON-WETTABLE
   18      CONFINED     LOG-ARITH     1.000E+00    VERTICAL K  NON-WETTABLE
   19      CONFINED     LOG-ARITH     1.000E+00    VERTICAL K  NON-WETTABLE
   20      CONFINED     LOG-ARITH     1.000E+00    VERTICAL K  NON-WETTABLE
   21      CONFINED     LOG-ARITH     1.000E+00    VERTICAL K  NON-WETTABLE
   22      CONFINED     LOG-ARITH     1.000E+00    VERTICAL K  NON-WETTABLE
   23      CONFINED     LOG-ARITH     1.000E+00    VERTICAL K  NON-WETTABLE
   24      CONFINED     LOG-ARITH     1.000E+00    VERTICAL K  NON-WETTABLE
   25      CONFINED     LOG-ARITH     1.000E+00    VERTICAL K  NON-WETTABLE
   26      CONFINED     LOG-ARITH     1.000E+00    VERTICAL K  NON-WETTABLE
   27      CONFINED     LOG-ARITH     1.000E+00    VERTICAL K  NON-WETTABLE
   28      CONFINED     LOG-ARITH     1.000E+00    VERTICAL K  NON-WETTABLE
   29      CONFINED     LOG-ARITH     1.000E+00    VERTICAL K  NON-WETTABLE
   30      CONFINED     LOG-ARITH     1.000E+00    VERTICAL K  NON-WETTABLE
   31      CONFINED     LOG-ARITH     1.000E+00    VERTICAL K  NON-WETTABLE
   32      CONFINED     LOG-ARITH     1.000E+00    VERTICAL K  NON-WETTABLE
   33      CONFINED     LOG-ARITH     1.000E+00    VERTICAL K  NON-WETTABLE
   34      CONFINED     LOG-ARITH     1.000E+00    VERTICAL K  NON-WETTABLE
   35      CONFINED     LOG-ARITH     1.000E+00    VERTICAL K  NON-WETTABLE
   36      CONFINED     LOG-ARITH     1.000E+00    VERTICAL K  NON-WETTABLE

 WETTING CAPABILITY IS NOT ACTIVE IN ANY LAYER



              HYD. COND. ALONG ROWS FOR LAYER   1
 READING ON UNIT   15 WITH FORMAT: (36E15.6)           



                VERTICAL HYD. COND. FOR LAYER   1
 READING ON UNIT   15 WITH FORMAT: (36E15.6)           



                   SPECIFIC STORAGE FOR LAYER   1
 READING ON UNIT   15 WITH FORMAT: (36E15.6)           



              HYD. COND. ALONG ROWS FOR LAYER   2
 READING ON UNIT   15 WITH FORMAT: (36E15.6)           



                VERTICAL HYD. COND. FOR LAYER   2
 READING ON UNIT   15 WITH FORMAT: (36E15.6)           



                   SPECIFIC STORAGE FOR LAYER   2
 READING ON UNIT   15 WITH FORMAT: (36E15.6)           



              HYD. COND. ALONG ROWS FOR LAYER   3
 READING ON UNIT   15 WITH FORMAT: (36E15.6)           



                VERTICAL HYD. COND. FOR LAYER   3
 READING ON UNIT   15 WITH FORMAT: (36E15.6)           



                   SPECIFIC STORAGE FOR LAYER   3
 READING ON UNIT   15 WITH FORMAT: (36E15.6)           



              HYD. COND. ALONG ROWS FOR LAYER   4
 READING ON UNIT   15 WITH FORMAT: (36E15.6)           



                VERTICAL HYD. COND. FOR LAYER   4
 READING ON UNIT   15 WITH FORMAT: (36E15.6)           



                   SPECIFIC STORAGE FOR LAYER   4
 READING ON UNIT   15 WITH FORMAT: (36E15.6)           



              HYD. COND. ALONG ROWS FOR LAYER   5
 READING ON UNIT   15 WITH FORMAT: (36E15.6)           



                VERTICAL HYD. COND. FOR LAYER   5
 READING ON UNIT   15 WITH FORMAT: (36E15.6)           



                   SPECIFIC STORAGE FOR LAYER   5
 READING ON UNIT   15 WITH FORMAT: (36E15.6)           



              HYD. COND. ALONG ROWS FOR LAYER   6
 READING ON UNIT   15 WITH FORMAT: (36E15.6)           



                VERTICAL HYD. COND. FOR LAYER   6
 READING ON UNIT   15 WITH FORMAT: (36E15.6)           



                   SPECIFIC STORAGE FOR LAYER   6
 READING ON UNIT   15 WITH FORMAT: (36E15.6)           



              HYD. COND. ALONG ROWS FOR LAYER   7
 READING ON UNIT   15 WITH FORMAT: (36E15.6)           



                VERTICAL HYD. COND. FOR LAYER   7
 READING ON UNIT   15 WITH FORMAT: (36E15.6)           



                   SPECIFIC STORAGE FOR LAYER   7
 READING ON UNIT   15 WITH FORMAT: (36E15.6)           



              HYD. COND. ALONG ROWS FOR LAYER   8
 READING ON UNIT   15 WITH FORMAT: (36E15.6)           



                VERTICAL HYD. COND. FOR LAYER   8
 READING ON UNIT   15 WITH FORMAT: (36E15.6)           



                   SPECIFIC STORAGE FOR LAYER   8
 READING ON UNIT   15 WITH FORMAT: (36E15.6)           



              HYD. COND. ALONG ROWS FOR LAYER   9
 READING ON UNIT   15 WITH FORMAT: (36E15.6)           



                VERTICAL HYD. COND. FOR LAYER   9
 READING ON UNIT   15 WITH FORMAT: (36E15.6)           



                   SPECIFIC STORAGE FOR LAYER   9
 READING ON UNIT   15 WITH FORMAT: (36E15.6)           



              HYD. COND. ALONG ROWS FOR LAYER  10
 READING ON UNIT   15 WITH FORMAT: (36E15.6)           



                VERTICAL HYD. COND. FOR LAYER  10
 READING ON UNIT   15 WITH FORMAT: (36E15.6)           



                   SPECIFIC STORAGE FOR LAYER  10
 READING ON UNIT   15 WITH FORMAT: (36E15.6)           



              HYD. COND. ALONG ROWS FOR LAYER  11
 READING ON UNIT   15 WITH FORMAT: (36E15.6)           



                VERTICAL HYD. COND. FOR LAYER  11
 READING ON UNIT   15 WITH FORMAT: (36E15.6)           



                   SPECIFIC STORAGE FOR LAYER  11
 READING ON UNIT   15 WITH FORMAT: (36E15.6)           



              HYD. COND. ALONG ROWS FOR LAYER  12
 READING ON UNIT   15 WITH FORMAT: (36E15.6)           



                VERTICAL HYD. COND. FOR LAYER  12
 READING ON UNIT   15 WITH FORMAT: (36E15.6)           



                   SPECIFIC STORAGE FOR LAYER  12
 READING ON UNIT   15 WITH FORMAT: (36E15.6)           



              HYD. COND. ALONG ROWS FOR LAYER  13
 READING ON UNIT   15 WITH FORMAT: (36E15.6)           



                VERTICAL HYD. COND. FOR LAYER  13
 READING ON UNIT   15 WITH FORMAT: (36E15.6)           



                   SPECIFIC STORAGE FOR LAYER  13
 READING ON UNIT   15 WITH FORMAT: (36E15.6)           



              HYD. COND. ALONG ROWS FOR LAYER  14
 READING ON UNIT   15 WITH FORMAT: (36E15.6)           



                VERTICAL HYD. COND. FOR LAYER  14
 READING ON UNIT   15 WITH FORMAT: (36E15.6)           



                   SPECIFIC STORAGE FOR LAYER  14
 READING ON UNIT   15 WITH FORMAT: (36E15.6)           



              HYD. COND. ALONG ROWS FOR LAYER  15
 READING ON UNIT   15 WITH FORMAT: (36E15.6)           



                VERTICAL HYD. COND. FOR LAYER  15
 READING ON UNIT   15 WITH FORMAT: (36E15.6)           



                   SPECIFIC STORAGE FOR LAYER  15
 READING ON UNIT   15 WITH FORMAT: (36E15.6)           



              HYD. COND. ALONG ROWS FOR LAYER  16
 READING ON UNIT   15 WITH FORMAT: (36E15.6)           



                VERTICAL HYD. COND. FOR LAYER  16
 READING ON UNIT   15 WITH FORMAT: (36E15.6)           



                   SPECIFIC STORAGE FOR LAYER  16
 READING ON UNIT   15 WITH FORMAT: (36E15.6)           



              HYD. COND. ALONG ROWS FOR LAYER  17
 READING ON UNIT   15 WITH FORMAT: (36E15.6)           



                VERTICAL HYD. COND. FOR LAYER  17
 READING ON UNIT   15 WITH FORMAT: (36E15.6)           



                   SPECIFIC STORAGE FOR LAYER  17
 READING ON UNIT   15 WITH FORMAT: (36E15.6)           



              HYD. COND. ALONG ROWS FOR LAYER  18
 READING ON UNIT   15 WITH FORMAT: (36E15.6)           



                VERTICAL HYD. COND. FOR LAYER  18
 READING ON UNIT   15 WITH FORMAT: (36E15.6)           



                   SPECIFIC STORAGE FOR LAYER  18
 READING ON UNIT   15 WITH FORMAT: (36E15.6)           



              HYD. COND. ALONG ROWS FOR LAYER  19
 READING ON UNIT   15 WITH FORMAT: (36E15.6)           



                VERTICAL HYD. COND. FOR LAYER  19
 READING ON UNIT   15 WITH FORMAT: (36E15.6)           



                   SPECIFIC STORAGE FOR LAYER  19
 READING ON UNIT   15 WITH FORMAT: (36E15.6)           



              HYD. COND. ALONG ROWS FOR LAYER  20
 READING ON UNIT   15 WITH FORMAT: (36E15.6)           



                VERTICAL HYD. COND. FOR LAYER  20
 READING ON UNIT   15 WITH FORMAT: (36E15.6)           



                   SPECIFIC STORAGE FOR LAYER  20
 READING ON UNIT   15 WITH FORMAT: (36E15.6)           



              HYD. COND. ALONG ROWS FOR LAYER  21
 READING ON UNIT   15 WITH FORMAT: (36E15.6)           



                VERTICAL HYD. COND. FOR LAYER  21
 READING ON UNIT   15 WITH FORMAT: (36E15.6)           



                   SPECIFIC STORAGE FOR LAYER  21
 READING ON UNIT   15 WITH FORMAT: (36E15.6)           



              HYD. COND. ALONG ROWS FOR LAYER  22
 READING ON UNIT   15 WITH FORMAT: (36E15.6)           



                VERTICAL HYD. COND. FOR LAYER  22
 READING ON UNIT   15 WITH FORMAT: (36E15.6)           



                   SPECIFIC STORAGE FOR LAYER  22
 READING ON UNIT   15 WITH FORMAT: (36E15.6)           



              HYD. COND. ALONG ROWS FOR LAYER  23
 READING ON UNIT   15 WITH FORMAT: (36E15.6)           



                VERTICAL HYD. COND. FOR LAYER  23
 READING ON UNIT   15 WITH FORMAT: (36E15.6)           



                   SPECIFIC STORAGE FOR LAYER  23
 READING ON UNIT   15 WITH FORMAT: (36E15.6)           



              HYD. COND. ALONG ROWS FOR LAYER  24
 READING ON UNIT   15 WITH FORMAT: (36E15.6)           



                VERTICAL HYD. COND. FOR LAYER  24
 READING ON UNIT   15 WITH FORMAT: (36E15.6)           



                   SPECIFIC STORAGE FOR LAYER  24
 READING ON UNIT   15 WITH FORMAT: (36E15.6)           



              HYD. COND. ALONG ROWS FOR LAYER  25
 READING ON UNIT   15 WITH FORMAT: (36E15.6)           



                VERTICAL HYD. COND. FOR LAYER  25
 READING ON UNIT   15 WITH FORMAT: (36E15.6)           



                   SPECIFIC STORAGE FOR LAYER  25
 READING ON UNIT   15 WITH FORMAT: (36E15.6)           



              HYD. COND. ALONG ROWS FOR LAYER  26
 READING ON UNIT   15 WITH FORMAT: (36E15.6)           



                VERTICAL HYD. COND. FOR LAYER  26
 READING ON UNIT   15 WITH FORMAT: (36E15.6)           



                   SPECIFIC STORAGE FOR LAYER  26
 READING ON UNIT   15 WITH FORMAT: (36E15.6)           



              HYD. COND. ALONG ROWS FOR LAYER  27
 READING ON UNIT   15 WITH FORMAT: (36E15.6)           



                VERTICAL HYD. COND. FOR LAYER  27
 READING ON UNIT   15 WITH FORMAT: (36E15.6)           



                   SPECIFIC STORAGE FOR LAYER  27
 READING ON UNIT   15 WITH FORMAT: (36E15.6)           



              HYD. COND. ALONG ROWS FOR LAYER  28
 READING ON UNIT   15 WITH FORMAT: (36E15.6)           



                VERTICAL HYD. COND. FOR LAYER  28
 READING ON UNIT   15 WITH FORMAT: (36E15.6)           



                   SPECIFIC STORAGE FOR LAYER  28
 READING ON UNIT   15 WITH FORMAT: (36E15.6)           



              HYD. COND. ALONG ROWS FOR LAYER  29
 READING ON UNIT   15 WITH FORMAT: (36E15.6)           



                VERTICAL HYD. COND. FOR LAYER  29
 READING ON UNIT   15 WITH FORMAT: (36E15.6)           



                   SPECIFIC STORAGE FOR LAYER  29
 READING ON UNIT   15 WITH FORMAT: (36E15.6)           



              HYD. COND. ALONG ROWS FOR LAYER  30
 READING ON UNIT   15 WITH FORMAT: (36E15.6)           



                VERTICAL HYD. COND. FOR LAYER  30
 READING ON UNIT   15 WITH FORMAT: (36E15.6)           



                   SPECIFIC STORAGE FOR LAYER  30
 READING ON UNIT   15 WITH FORMAT: (36E15.6)           



              HYD. COND. ALONG ROWS FOR LAYER  31
 READING ON UNIT   15 WITH FORMAT: (36E15.6)           



                VERTICAL HYD. COND. FOR LAYER  31
 READING ON UNIT   15 WITH FORMAT: (36E15.6)           



                   SPECIFIC STORAGE FOR LAYER  31
 READING ON UNIT   15 WITH FORMAT: (36E15.6)           



              HYD. COND. ALONG ROWS FOR LAYER  32
 READING ON UNIT   15 WITH FORMAT: (36E15.6)           



                VERTICAL HYD. COND. FOR LAYER  32
 READING ON UNIT   15 WITH FORMAT: (36E15.6)           



                   SPECIFIC STORAGE FOR LAYER  32
 READING ON UNIT   15 WITH FORMAT: (36E15.6)           



              HYD. COND. ALONG ROWS FOR LAYER  33
 READING ON UNIT   15 WITH FORMAT: (36E15.6)           



                VERTICAL HYD. COND. FOR LAYER  33
 READING ON UNIT   15 WITH FORMAT: (36E15.6)           



                   SPECIFIC STORAGE FOR LAYER  33
 READING ON UNIT   15 WITH FORMAT: (36E15.6)           



              HYD. COND. ALONG ROWS FOR LAYER  34
 READING ON UNIT   15 WITH FORMAT: (36E15.6)           



                VERTICAL HYD. COND. FOR LAYER  34
 READING ON UNIT   15 WITH FORMAT: (36E15.6)           



                   SPECIFIC STORAGE FOR LAYER  34
 READING ON UNIT   15 WITH FORMAT: (36E15.6)           



              HYD. COND. ALONG ROWS FOR LAYER  35
 READING ON UNIT   15 WITH FORMAT: (36E15.6)           



                VERTICAL HYD. COND. FOR LAYER  35
 READING ON UNIT   15 WITH FORMAT: (36E15.6)           



                   SPECIFIC STORAGE FOR LAYER  35
 READING ON UNIT   15 WITH FORMAT: (36E15.6)           



              HYD. COND. ALONG ROWS FOR LAYER  36
 READING ON UNIT   15 WITH FORMAT: (36E15.6)           



                VERTICAL HYD. COND. FOR LAYER  36
 READING ON UNIT   15 WITH FORMAT: (36E15.6)           



                   SPECIFIC STORAGE FOR LAYER  36
 READING ON UNIT   15 WITH FORMAT: (36E15.6)           

 WEL -- WELL PACKAGE, VERSION 7, 5/2/2005 INPUT READ FROM UNIT   20
 # Well file for MODFLOW, generated by Flopy.
 No named parameters
 MAXIMUM OF      5 ACTIVE WELLS AT ONE TIME


     0 Well parameters

 PCG -- CONJUGATE-GRADIENT SOLUTION PACKAGE, VERSION 7, 5/2/2005
 # PCG for MODFLOW, generated by Flopy.
 MAXIMUM OF    500 CALLS OF SOLUTION ROUTINE
 MAXIMUM OF     30 INTERNAL ITERATIONS PER CALL TO SOLUTION ROUTINE
 MATRIX PRECONDITIONING TYPE :    1



                                    SOLUTION BY THE CONJUGATE-GRADIENT METHOD
                                   -------------------------------------------
                    MAXIMUM NUMBER OF CALLS TO PCG ROUTINE =      500
                        MAXIMUM ITERATIONS PER CALL TO PCG =       30
                               MATRIX PRECONDITIONING TYPE =        1
        RELAXATION FACTOR (ONLY USED WITH PRECOND. TYPE 1) =    0.10000E+01
 PARAMETER OF POLYNOMIAL PRECOND. = 2 (2) OR IS CALCULATED :        0
                         HEAD CHANGE CRITERION FOR CLOSURE =    0.10000E-03
                     RESIDUAL CHANGE CRITERION FOR CLOSURE =    0.10000E-02
            PCG HEAD AND RESIDUAL CHANGE PRINTOUT INTERVAL =      999
     PRINTING FROM SOLVER IS LIMITED(1) OR SUPPRESSED (>1) =        3
                            STEADY-STATE DAMPING PARAMETER =    0.10000E+01
                               TRANSIENT DAMPING PARAMETER =    0.10000E+01
1
                            STRESS PERIOD NO.    1, LENGTH =   1.000000    
                            -----------------------------------------------

                              NUMBER OF TIME STEPS =     6

                               MULTIPLIER FOR DELT =     1.000

                            INITIAL TIME STEP SIZE =  0.1666667    

 WELL NO.  LAYER   ROW   COL   STRESS RATE         
 --------------------------------------------------
      1      2      1      1      -10.00    
      2      3      1      1      -10.00    
      3      4      1      1      -10.00    
      4      5      1      1      -10.00    
      5      6      1      1      -10.00    

      5 WELLS
 
 SOLVING FOR HEAD 

 NO OUTPUT CONTROL FOR STRESS PERIOD    1   TIME STEP   1
 
 SOLVING FOR HEAD 

 NO OUTPUT CONTROL FOR STRESS PERIOD    1   TIME STEP   2
 
 SOLVING FOR HEAD 

 NO OUTPUT CONTROL FOR STRESS PERIOD    1   TIME STEP   3
 
 SOLVING FOR HEAD 

 NO OUTPUT CONTROL FOR STRESS PERIOD    1   TIME STEP   4
 
 SOLVING FOR HEAD 

 NO OUTPUT CONTROL FOR STRESS PERIOD    1   TIME STEP   5
 
 SOLVING FOR HEAD 

 OUTPUT CONTROL FOR STRESS PERIOD    1   TIME STEP   6
    SAVE HEAD FOR ALL LAYERS
    SAVE BUDGET
 UBDSV1 SAVING "         STORAGE" ON UNIT  53 AT TIME STEP  6, STRESS PERIOD   1
 UBDSV2 SAVING "   CONSTANT HEAD" ON UNIT  53 AT TIME STEP  6, STRESS PERIOD   1
 UBDSV1 SAVING "FLOW RIGHT FACE " ON UNIT  53 AT TIME STEP  6, STRESS PERIOD   1
 UBDSV1 SAVING "FLOW LOWER FACE " ON UNIT  53 AT TIME STEP  6, STRESS PERIOD   1

 HEAD WILL BE SAVED ON UNIT   51 AT END OF TIME STEP   6, STRESS PERIOD    1
1
  VOLUMETRIC BUDGET FOR ENTIRE MODEL AT END OF TIME STEP  6 IN STRESS PERIOD   1
  ------------------------------------------------------------------------------

     CUMULATIVE VOLUMES      L**3       RATES FOR THIS TIME STEP      L**3/T
     ------------------                 ------------------------

           IN:                                      IN:
           ---                                      ---
             STORAGE =          49.9880               STORAGE =          49.9885
       CONSTANT HEAD =       6.6367E-06         CONSTANT HEAD =       2.3713E-05
               WELLS =           0.0000                 WELLS =           0.0000

            TOTAL IN =          49.9880              TOTAL IN =          49.9886

          OUT:                                     OUT:
          ----                                     ----
             STORAGE =           0.0000               STORAGE =           0.0000
       CONSTANT HEAD =           0.0000         CONSTANT HEAD =           0.0000
               WELLS =          50.0000                 WELLS =          50.0000

           TOTAL OUT =          50.0000             TOTAL OUT =          50.0000

            IN - OUT =      -1.1990E-02              IN - OUT =      -1.1436E-02

 PERCENT DISCREPANCY =          -0.02     PERCENT DISCREPANCY =          -0.02






          TIME SUMMARY AT END OF TIME STEP   6 IN STRESS PERIOD    1
                    SECONDS     MINUTES      HOURS       DAYS        YEARS
                    -----------------------------------------------------------
   TIME STEP LENGTH  14400.      240.00      4.0000     0.16667     4.56308E-04
 STRESS PERIOD TIME  86400.      1440.0      24.000      1.0000     2.73785E-03
         TOTAL TIME  86400.      1440.0      24.000      1.0000     2.73785E-03
1
1
                            STRESS PERIOD NO.    2, LENGTH =   1.000000    
                            -----------------------------------------------

                              NUMBER OF TIME STEPS =     6

                               MULTIPLIER FOR DELT =     1.000

                            INITIAL TIME STEP SIZE =  0.1666667    

 WELL NO.  LAYER   ROW   COL   STRESS RATE         
 --------------------------------------------------
      1      2      1      1      -10.00    
      2      3      1      1      -10.00    
      3      4      1      1      -10.00    
      4      5      1      1      -10.00    
      5      6      1      1      -10.00    

      5 WELLS
 
 SOLVING FOR HEAD 

 NO OUTPUT CONTROL FOR STRESS PERIOD    2   TIME STEP   1
 
 SOLVING FOR HEAD 

 NO OUTPUT CONTROL FOR STRESS PERIOD    2   TIME STEP   2
 
 SOLVING FOR HEAD 

 NO OUTPUT CONTROL FOR STRESS PERIOD    2   TIME STEP   3
 
 SOLVING FOR HEAD 

 NO OUTPUT CONTROL FOR STRESS PERIOD    2   TIME STEP   4
 
 SOLVING FOR HEAD 

 NO OUTPUT CONTROL FOR STRESS PERIOD    2   TIME STEP   5
 
 SOLVING FOR HEAD 

 OUTPUT CONTROL FOR STRESS PERIOD    2   TIME STEP   6
    SAVE HEAD FOR ALL LAYERS
    SAVE BUDGET
 UBDSV1 SAVING "         STORAGE" ON UNIT  53 AT TIME STEP  6, STRESS PERIOD   2
 UBDSV2 SAVING "   CONSTANT HEAD" ON UNIT  53 AT TIME STEP  6, STRESS PERIOD   2
 UBDSV1 SAVING "FLOW RIGHT FACE " ON UNIT  53 AT TIME STEP  6, STRESS PERIOD   2
 UBDSV1 SAVING "FLOW LOWER FACE " ON UNIT  53 AT TIME STEP  6, STRESS PERIOD   2

 HEAD WILL BE SAVED ON UNIT   51 AT END OF TIME STEP   6, STRESS PERIOD    2
1
  VOLUMETRIC BUDGET FOR ENTIRE MODEL AT END OF TIME STEP  6 IN STRESS PERIOD   2
  ------------------------------------------------------------------------------

     CUMULATIVE VOLUMES      L**3       RATES FOR THIS TIME STEP      L**3/T
     ------------------                 ------------------------

           IN:                                      IN:
           ---                                      ---
             STORAGE =          99.9800               STORAGE =          49.9929
       CONSTANT HEAD =       1.9000E-04         CONSTANT HEAD =       3.7725E-04
               WELLS =           0.0000                 WELLS =           0.0000

            TOTAL IN =          99.9802              TOTAL IN =          49.9933

          OUT:                                     OUT:
          ----                                     ----
             STORAGE =           0.0000               STORAGE =           0.0000
       CONSTANT HEAD =           0.0000         CONSTANT HEAD =           0.0000
               WELLS =         100.0000                 WELLS =          50.0000

           TOTAL OUT =         100.0000             TOTAL OUT =          50.0000

            IN - OUT =      -1.9852E-02              IN - OUT =      -6.6986E-03

 PERCENT DISCREPANCY =          -0.02     PERCENT DISCREPANCY =          -0.01






          TIME SUMMARY AT END OF TIME STEP   6 IN STRESS PERIOD    2
                    SECONDS     MINUTES      HOURS       DAYS        YEARS
                    -----------------------------------------------------------
   TIME STEP LENGTH  14400.      240.00      4.0000     0.16667     4.56308E-04
 STRESS PERIOD TIME  86400.      1440.0      24.000      1.0000     2.73785E-03
         TOTAL TIME 1.72800E+05  2880.0      48.000      2.0000     5.47570E-03
1
1
                            STRESS PERIOD NO.    3, LENGTH =   1.000000    
                            -----------------------------------------------

                              NUMBER OF TIME STEPS =     6

                               MULTIPLIER FOR DELT =     1.000

                            INITIAL TIME STEP SIZE =  0.1666667    

 WELL NO.  LAYER   ROW   COL   STRESS RATE         
 --------------------------------------------------
      1      2      1      1      -10.00    
      2      3      1      1      -10.00    
      3      4      1      1      -10.00    
      4      5      1      1      -10.00    
      5      6      1      1      -10.00    

      5 WELLS
 
 SOLVING FOR HEAD 

 NO OUTPUT CONTROL FOR STRESS PERIOD    3   TIME STEP   1
 
 SOLVING FOR HEAD 

 NO OUTPUT CONTROL FOR STRESS PERIOD    3   TIME STEP   2
 
 SOLVING FOR HEAD 

 NO OUTPUT CONTROL FOR STRESS PERIOD    3   TIME STEP   3
 
 SOLVING FOR HEAD 

 NO OUTPUT CONTROL FOR STRESS PERIOD    3   TIME STEP   4
 
 SOLVING FOR HEAD 

 NO OUTPUT CONTROL FOR STRESS PERIOD    3   TIME STEP   5
 
 SOLVING FOR HEAD 

 OUTPUT CONTROL FOR STRESS PERIOD    3   TIME STEP   6
    SAVE HEAD FOR ALL LAYERS
    SAVE BUDGET
 UBDSV1 SAVING "         STORAGE" ON UNIT  53 AT TIME STEP  6, STRESS PERIOD   3
 UBDSV2 SAVING "   CONSTANT HEAD" ON UNIT  53 AT TIME STEP  6, STRESS PERIOD   3
 UBDSV1 SAVING "FLOW RIGHT FACE " ON UNIT  53 AT TIME STEP  6, STRESS PERIOD   3
 UBDSV1 SAVING "FLOW LOWER FACE " ON UNIT  53 AT TIME STEP  6, STRESS PERIOD   3

 HEAD WILL BE SAVED ON UNIT   51 AT END OF TIME STEP   6, STRESS PERIOD    3
1
  VOLUMETRIC BUDGET FOR ENTIRE MODEL AT END OF TIME STEP  6 IN STRESS PERIOD   3
  ------------------------------------------------------------------------------

     CUMULATIVE VOLUMES      L**3       RATES FOR THIS TIME STEP      L**3/T
     ------------------                 ------------------------

           IN:                                      IN:
           ---                                      ---
             STORAGE =         149.9727               STORAGE =          49.9931
       CONSTANT HEAD =       1.0766E-03         CONSTANT HEAD =       1.3176E-03
               WELLS =           0.0000                 WELLS =           0.0000

            TOTAL IN =         149.9738              TOTAL IN =          49.9944

          OUT:                                     OUT:
          ----                                     ----
             STORAGE =           0.0000               STORAGE =           0.0000
       CONSTANT HEAD =           0.0000         CONSTANT HEAD =           0.0000
               WELLS =         150.0000                 WELLS =          50.0000

           TOTAL OUT =         150.0000             TOTAL OUT =          50.0000

            IN - OUT =      -2.6184E-02              IN - OUT =      -5.6229E-03

 PERCENT DISCREPANCY =          -0.02     PERCENT DISCREPANCY =          -0.01






          TIME SUMMARY AT END OF TIME STEP   6 IN STRESS PERIOD    3
                    SECONDS     MINUTES      HOURS       DAYS        YEARS
                    -----------------------------------------------------------
   TIME STEP LENGTH  14400.      240.00      4.0000     0.16667     4.56308E-04
 STRESS PERIOD TIME  86400.      1440.0      24.000      1.0000     2.73785E-03
         TOTAL TIME 2.59200E+05  4320.0      72.000      3.0000     8.21355E-03
1
1
                            STRESS PERIOD NO.    4, LENGTH =   1.000000    
                            -----------------------------------------------

                              NUMBER OF TIME STEPS =     6

                               MULTIPLIER FOR DELT =     1.000

                            INITIAL TIME STEP SIZE =  0.1666667    

 WELL NO.  LAYER   ROW   COL   STRESS RATE         
 --------------------------------------------------
      1      2      1      1      -10.00    
      2      3      1      1      -10.00    
      3      4      1      1      -10.00    
      4      5      1      1      -10.00    
      5      6      1      1      -10.00    

      5 WELLS
 
 SOLVING FOR HEAD 

 NO OUTPUT CONTROL FOR STRESS PERIOD    4   TIME STEP   1
 
 SOLVING FOR HEAD 

 NO OUTPUT CONTROL FOR STRESS PERIOD    4   TIME STEP   2
 
 SOLVING FOR HEAD 

 NO OUTPUT CONTROL FOR STRESS PERIOD    4   TIME STEP   3
 
 SOLVING FOR HEAD 

 NO OUTPUT CONTROL FOR STRESS PERIOD    4   TIME STEP   4
 
 SOLVING FOR HEAD 

 NO OUTPUT CONTROL FOR STRESS PERIOD    4   TIME STEP   5
 
 SOLVING FOR HEAD 

 OUTPUT CONTROL FOR STRESS PERIOD    4   TIME STEP   6
    SAVE HEAD FOR ALL LAYERS
    SAVE BUDGET
 UBDSV1 SAVING "         STORAGE" ON UNIT  53 AT TIME STEP  6, STRESS PERIOD   4
 UBDSV2 SAVING "   CONSTANT HEAD" ON UNIT  53 AT TIME STEP  6, STRESS PERIOD   4
 UBDSV1 SAVING "FLOW RIGHT FACE " ON UNIT  53 AT TIME STEP  6, STRESS PERIOD   4
 UBDSV1 SAVING "FLOW LOWER FACE " ON UNIT  53 AT TIME STEP  6, STRESS PERIOD   4

 HEAD WILL BE SAVED ON UNIT   51 AT END OF TIME STEP   6, STRESS PERIOD    4
1
  VOLUMETRIC BUDGET FOR ENTIRE MODEL AT END OF TIME STEP  6 IN STRESS PERIOD   4
  ------------------------------------------------------------------------------

     CUMULATIVE VOLUMES      L**3       RATES FOR THIS TIME STEP      L**3/T
     ------------------                 ------------------------

           IN:                                      IN:
           ---                                      ---
             STORAGE =         199.9652               STORAGE =          49.9934
       CONSTANT HEAD =       3.0735E-03         CONSTANT HEAD =       2.4776E-03
               WELLS =           0.0000                 WELLS =           0.0000

            TOTAL IN =         199.9682              TOTAL IN =          49.9959

          OUT:                                     OUT:
          ----                                     ----
             STORAGE =           0.0000               STORAGE =           0.0000
       CONSTANT HEAD =           0.0000         CONSTANT HEAD =           0.0000
               WELLS =         200.0000                 WELLS =          50.0000

           TOTAL OUT =         200.0000             TOTAL OUT =          50.0000

            IN - OUT =      -3.1738E-02              IN - OUT =      -4.0855E-03

 PERCENT DISCREPANCY =          -0.02     PERCENT DISCREPANCY =          -0.01






          TIME SUMMARY AT END OF TIME STEP   6 IN STRESS PERIOD    4
                    SECONDS     MINUTES      HOURS       DAYS        YEARS
                    -----------------------------------------------------------
   TIME STEP LENGTH  14400.      240.00      4.0000     0.16667     4.56308E-04
 STRESS PERIOD TIME  86400.      1440.0      24.000      1.0000     2.73785E-03
         TOTAL TIME 3.45600E+05  5760.0      96.000      4.0000     1.09514E-02
1
1
                            STRESS PERIOD NO.    5, LENGTH =   1.000000    
                            -----------------------------------------------

                              NUMBER OF TIME STEPS =     6

                               MULTIPLIER FOR DELT =     1.000

                            INITIAL TIME STEP SIZE =  0.1666667    

 WELL NO.  LAYER   ROW   COL   STRESS RATE         
 --------------------------------------------------
      1      2      1      1      -10.00    
      2      3      1      1      -10.00    
      3      4      1      1      -10.00    
      4      5      1      1      -10.00    
      5      6      1      1      -10.00    

      5 WELLS
 
 SOLVING FOR HEAD 

 NO OUTPUT CONTROL FOR STRESS PERIOD    5   TIME STEP   1
 
 SOLVING FOR HEAD 

 NO OUTPUT CONTROL FOR STRESS PERIOD    5   TIME STEP   2
 
 SOLVING FOR HEAD 

 NO OUTPUT CONTROL FOR STRESS PERIOD    5   TIME STEP   3
 
 SOLVING FOR HEAD 

 NO OUTPUT CONTROL FOR STRESS PERIOD    5   TIME STEP   4
 
 SOLVING FOR HEAD 

 NO OUTPUT CONTROL FOR STRESS PERIOD    5   TIME STEP   5
 
 SOLVING FOR HEAD 

 OUTPUT CONTROL FOR STRESS PERIOD    5   TIME STEP   6
    SAVE HEAD FOR ALL LAYERS
    SAVE BUDGET
 UBDSV1 SAVING "         STORAGE" ON UNIT  53 AT TIME STEP  6, STRESS PERIOD   5
 UBDSV2 SAVING "   CONSTANT HEAD" ON UNIT  53 AT TIME STEP  6, STRESS PERIOD   5
 UBDSV1 SAVING "FLOW RIGHT FACE " ON UNIT  53 AT TIME STEP  6, STRESS PERIOD   5
 UBDSV1 SAVING "FLOW LOWER FACE " ON UNIT  53 AT TIME STEP  6, STRESS PERIOD   5

 HEAD WILL BE SAVED ON UNIT   51 AT END OF TIME STEP   6, STRESS PERIOD    5
1
  VOLUMETRIC BUDGET FOR ENTIRE MODEL AT END OF TIME STEP  6 IN STRESS PERIOD   5
  ------------------------------------------------------------------------------

     CUMULATIVE VOLUMES      L**3       RATES FOR THIS TIME STEP      L**3/T
     ------------------                 ------------------------

           IN:                                      IN:
           ---                                      ---
             STORAGE =         249.9560               STORAGE =          49.9898
       CONSTANT HEAD =       6.1256E-03         CONSTANT HEAD =       3.4133E-03
               WELLS =           0.0000                 WELLS =           0.0000

            TOTAL IN =         249.9621              TOTAL IN =          49.9932

          OUT:                                     OUT:
          ----                                     ----
             STORAGE =           0.0000               STORAGE =           0.0000
       CONSTANT HEAD =           0.0000         CONSTANT HEAD =           0.0000
               WELLS =         250.0000                 WELLS =          50.0000

           TOTAL OUT =         250.0000             TOTAL OUT =          50.0000

            IN - OUT =      -3.7872E-02              IN - OUT =      -6.8283E-03

 PERCENT DISCREPANCY =          -0.02     PERCENT DISCREPANCY =          -0.01






          TIME SUMMARY AT END OF TIME STEP   6 IN STRESS PERIOD    5
                    SECONDS     MINUTES      HOURS       DAYS        YEARS
                    -----------------------------------------------------------
   TIME STEP LENGTH  14400.      240.00      4.0000     0.16667     4.56308E-04
 STRESS PERIOD TIME  86400.      1440.0      24.000      1.0000     2.73785E-03
         TOTAL TIME 4.32000E+05  7200.0      120.00      5.0000     1.36893E-02
1
1
                            STRESS PERIOD NO.    6, LENGTH =   1.000000    
                            -----------------------------------------------

                              NUMBER OF TIME STEPS =     6

                               MULTIPLIER FOR DELT =     1.000

                            INITIAL TIME STEP SIZE =  0.1666667    

 WELL NO.  LAYER   ROW   COL   STRESS RATE         
 --------------------------------------------------
      1      2      1      1      -10.00    
      2      3      1      1      -10.00    
      3      4      1      1      -10.00    
      4      5      1      1      -10.00    
      5      6      1      1      -10.00    

      5 WELLS
 
 SOLVING FOR HEAD 

 NO OUTPUT CONTROL FOR STRESS PERIOD    6   TIME STEP   1
 
 SOLVING FOR HEAD 

 NO OUTPUT CONTROL FOR STRESS PERIOD    6   TIME STEP   2
 
 SOLVING FOR HEAD 

 NO OUTPUT CONTROL FOR STRESS PERIOD    6   TIME STEP   3
 
 SOLVING FOR HEAD 

 NO OUTPUT CONTROL FOR STRESS PERIOD    6   TIME STEP   4
 
 SOLVING FOR HEAD 

 NO OUTPUT CONTROL FOR STRESS PERIOD    6   TIME STEP   5
 
 SOLVING FOR HEAD 

 OUTPUT CONTROL FOR STRESS PERIOD    6   TIME STEP   6
    SAVE HEAD FOR ALL LAYERS
    SAVE BUDGET
 UBDSV1 SAVING "         STORAGE" ON UNIT  53 AT TIME STEP  6, STRESS PERIOD   6
 UBDSV2 SAVING "   CONSTANT HEAD" ON UNIT  53 AT TIME STEP  6, STRESS PERIOD   6
 UBDSV1 SAVING "FLOW RIGHT FACE " ON UNIT  53 AT TIME STEP  6, STRESS PERIOD   6
 UBDSV1 SAVING "FLOW LOWER FACE " ON UNIT  53 AT TIME STEP  6, STRESS PERIOD   6

 HEAD WILL BE SAVED ON UNIT   51 AT END OF TIME STEP   6, STRESS PERIOD    6
1
  VOLUMETRIC BUDGET FOR ENTIRE MODEL AT END OF TIME STEP  6 IN STRESS PERIOD   6
  ------------------------------------------------------------------------------

     CUMULATIVE VOLUMES      L**3       RATES FOR THIS TIME STEP      L**3/T
     ------------------                 ------------------------

           IN:                                      IN:
           ---                                      ---
             STORAGE =         299.9467               STORAGE =          49.9927
       CONSTANT HEAD =       9.9260E-03         CONSTANT HEAD =       4.0390E-03
               WELLS =           0.0000                 WELLS =           0.0000

            TOTAL IN =         299.9567              TOTAL IN =          49.9968

          OUT:                                     OUT:
          ----                                     ----
             STORAGE =           0.0000               STORAGE =           0.0000
       CONSTANT HEAD =           0.0000         CONSTANT HEAD =           0.0000
               WELLS =         300.0000                 WELLS =          50.0000

           TOTAL OUT =         300.0000             TOTAL OUT =          50.0000

            IN - OUT =      -4.3335E-02              IN - OUT =      -3.2425E-03

 PERCENT DISCREPANCY =          -0.01     PERCENT DISCREPANCY =          -0.01






          TIME SUMMARY AT END OF TIME STEP   6 IN STRESS PERIOD    6
                    SECONDS     MINUTES      HOURS       DAYS        YEARS
                    -----------------------------------------------------------
   TIME STEP LENGTH  14400.      240.00      4.0000     0.16667     4.56308E-04
 STRESS PERIOD TIME  86400.      1440.0      24.000      1.0000     2.73785E-03
         TOTAL TIME 5.18400E+05  8640.0      144.00      6.0000     1.64271E-02
1
1
                            STRESS PERIOD NO.    7, LENGTH =   1.000000    
                            -----------------------------------------------

                              NUMBER OF TIME STEPS =     6

                               MULTIPLIER FOR DELT =     1.000

                            INITIAL TIME STEP SIZE =  0.1666667    

 WELL NO.  LAYER   ROW   COL   STRESS RATE         
 --------------------------------------------------
      1      2      1      1      -10.00    
      2      3      1      1      -10.00    
      3      4      1      1      -10.00    
      4      5      1      1      -10.00    
      5      6      1      1      -10.00    

      5 WELLS
 
 SOLVING FOR HEAD 

 NO OUTPUT CONTROL FOR STRESS PERIOD    7   TIME STEP   1
 
 SOLVING FOR HEAD 

 NO OUTPUT CONTROL FOR STRESS PERIOD    7   TIME STEP   2
 
 SOLVING FOR HEAD 

 NO OUTPUT CONTROL FOR STRESS PERIOD    7   TIME STEP   3
 
 SOLVING FOR HEAD 

 NO OUTPUT CONTROL FOR STRESS PERIOD    7   TIME STEP   4
 
 SOLVING FOR HEAD 

 NO OUTPUT CONTROL FOR STRESS PERIOD    7   TIME STEP   5
 
 SOLVING FOR HEAD 

 OUTPUT CONTROL FOR STRESS PERIOD    7   TIME STEP   6
    SAVE HEAD FOR ALL LAYERS
    SAVE BUDGET
 UBDSV1 SAVING "         STORAGE" ON UNIT  53 AT TIME STEP  6, STRESS PERIOD   7
 UBDSV2 SAVING "   CONSTANT HEAD" ON UNIT  53 AT TIME STEP  6, STRESS PERIOD   7
 UBDSV1 SAVING "FLOW RIGHT FACE " ON UNIT  53 AT TIME STEP  6, STRESS PERIOD   7
 UBDSV1 SAVING "FLOW LOWER FACE " ON UNIT  53 AT TIME STEP  6, STRESS PERIOD   7

 HEAD WILL BE SAVED ON UNIT   51 AT END OF TIME STEP   6, STRESS PERIOD    7
1
  VOLUMETRIC BUDGET FOR ENTIRE MODEL AT END OF TIME STEP  6 IN STRESS PERIOD   7
  ------------------------------------------------------------------------------

     CUMULATIVE VOLUMES      L**3       RATES FOR THIS TIME STEP      L**3/T
     ------------------                 ------------------------

           IN:                                      IN:
           ---                                      ---
             STORAGE =         349.9385               STORAGE =          49.9919
       CONSTANT HEAD =       1.4201E-02         CONSTANT HEAD =       4.4136E-03
               WELLS =           0.0000                 WELLS =           0.0000

            TOTAL IN =         349.9527              TOTAL IN =          49.9963

          OUT:                                     OUT:
          ----                                     ----
             STORAGE =           0.0000               STORAGE =           0.0000
       CONSTANT HEAD =           0.0000         CONSTANT HEAD =           0.0000
               WELLS =         350.0001                 WELLS =          50.0000

           TOTAL OUT =         350.0001             TOTAL OUT =          50.0000

            IN - OUT =      -4.7394E-02              IN - OUT =      -3.6621E-03

 PERCENT DISCREPANCY =          -0.01     PERCENT DISCREPANCY =          -0.01






          TIME SUMMARY AT END OF TIME STEP   6 IN STRESS PERIOD    7
                    SECONDS     MINUTES      HOURS       DAYS        YEARS
                    -----------------------------------------------------------
   TIME STEP LENGTH  14400.      240.00      4.0000     0.16667     4.56308E-04
 STRESS PERIOD TIME  86400.      1440.0      24.000      1.0000     2.73785E-03
         TOTAL TIME 6.04800E+05  10080.      168.00      7.0000     1.91649E-02
1
1
                            STRESS PERIOD NO.    8, LENGTH =   1.000000    
                            -----------------------------------------------

                              NUMBER OF TIME STEPS =     6

                               MULTIPLIER FOR DELT =     1.000

                            INITIAL TIME STEP SIZE =  0.1666667    

 WELL NO.  LAYER   ROW   COL   STRESS RATE         
 --------------------------------------------------
      1      2      1      1      -10.00    
      2      3      1      1      -10.00    
      3      4      1      1      -10.00    
      4      5      1      1      -10.00    
      5      6      1      1      -10.00    

      5 WELLS
 
 SOLVING FOR HEAD 

 NO OUTPUT CONTROL FOR STRESS PERIOD    8   TIME STEP   1
 
 SOLVING FOR HEAD 

 NO OUTPUT CONTROL FOR STRESS PERIOD    8   TIME STEP   2
 
 SOLVING FOR HEAD 

 NO OUTPUT CONTROL FOR STRESS PERIOD    8   TIME STEP   3
 
 SOLVING FOR HEAD 

 NO OUTPUT CONTROL FOR STRESS PERIOD    8   TIME STEP   4
 
 SOLVING FOR HEAD 

 NO OUTPUT CONTROL FOR STRESS PERIOD    8   TIME STEP   5
 
 SOLVING FOR HEAD 

 OUTPUT CONTROL FOR STRESS PERIOD    8   TIME STEP   6
    SAVE HEAD FOR ALL LAYERS
    SAVE BUDGET
 UBDSV1 SAVING "         STORAGE" ON UNIT  53 AT TIME STEP  6, STRESS PERIOD   8
 UBDSV2 SAVING "   CONSTANT HEAD" ON UNIT  53 AT TIME STEP  6, STRESS PERIOD   8
 UBDSV1 SAVING "FLOW RIGHT FACE " ON UNIT  53 AT TIME STEP  6, STRESS PERIOD   8
 UBDSV1 SAVING "FLOW LOWER FACE " ON UNIT  53 AT TIME STEP  6, STRESS PERIOD   8

 HEAD WILL BE SAVED ON UNIT   51 AT END OF TIME STEP   6, STRESS PERIOD    8
1
  VOLUMETRIC BUDGET FOR ENTIRE MODEL AT END OF TIME STEP  6 IN STRESS PERIOD   8
  ------------------------------------------------------------------------------

     CUMULATIVE VOLUMES      L**3       RATES FOR THIS TIME STEP      L**3/T
     ------------------                 ------------------------

           IN:                                      IN:
           ---                                      ---
             STORAGE =         399.9295               STORAGE =          49.9905
       CONSTANT HEAD =       1.8744E-02         CONSTANT HEAD =       4.6183E-03
               WELLS =           0.0000                 WELLS =           0.0000

            TOTAL IN =         399.9483              TOTAL IN =          49.9952

          OUT:                                     OUT:
          ----                                     ----
             STORAGE =           0.0000               STORAGE =           0.0000
       CONSTANT HEAD =           0.0000         CONSTANT HEAD =           0.0000
               WELLS =         400.0001                 WELLS =          50.0000

           TOTAL OUT =         400.0001             TOTAL OUT =          50.0000

            IN - OUT =      -5.1849E-02              IN - OUT =      -4.8332E-03

 PERCENT DISCREPANCY =          -0.01     PERCENT DISCREPANCY =          -0.01






          TIME SUMMARY AT END OF TIME STEP   6 IN STRESS PERIOD    8
                    SECONDS     MINUTES      HOURS       DAYS        YEARS
                    -----------------------------------------------------------
   TIME STEP LENGTH  14400.      240.00      4.0000     0.16667     4.56308E-04
 STRESS PERIOD TIME  86400.      1440.0      24.000      1.0000     2.73785E-03
         TOTAL TIME 6.91200E+05  11520.      192.00      8.0000     2.19028E-02
1
1
                            STRESS PERIOD NO.    9, LENGTH =   1.000000    
                            -----------------------------------------------

                              NUMBER OF TIME STEPS =     6

                               MULTIPLIER FOR DELT =     1.000

                            INITIAL TIME STEP SIZE =  0.1666667    

 WELL NO.  LAYER   ROW   COL   STRESS RATE         
 --------------------------------------------------
      1      2      1      1      -10.00    
      2      3      1      1      -10.00    
      3      4      1      1      -10.00    
      4      5      1      1      -10.00    
      5      6      1      1      -10.00    

      5 WELLS
 
 SOLVING FOR HEAD 

 NO OUTPUT CONTROL FOR STRESS PERIOD    9   TIME STEP   1
 
 SOLVING FOR HEAD 

 NO OUTPUT CONTROL FOR STRESS PERIOD    9   TIME STEP   2
 
 SOLVING FOR HEAD 

 NO OUTPUT CONTROL FOR STRESS PERIOD    9   TIME STEP   3
 
 SOLVING FOR HEAD 

 NO OUTPUT CONTROL FOR STRESS PERIOD    9   TIME STEP   4
 
 SOLVING FOR HEAD 

 NO OUTPUT CONTROL FOR STRESS PERIOD    9   TIME STEP   5
 
 SOLVING FOR HEAD 

 OUTPUT CONTROL FOR STRESS PERIOD    9   TIME STEP   6
    SAVE HEAD FOR ALL LAYERS
    SAVE BUDGET
 UBDSV1 SAVING "         STORAGE" ON UNIT  53 AT TIME STEP  6, STRESS PERIOD   9
 UBDSV2 SAVING "   CONSTANT HEAD" ON UNIT  53 AT TIME STEP  6, STRESS PERIOD   9
 UBDSV1 SAVING "FLOW RIGHT FACE " ON UNIT  53 AT TIME STEP  6, STRESS PERIOD   9
 UBDSV1 SAVING "FLOW LOWER FACE " ON UNIT  53 AT TIME STEP  6, STRESS PERIOD   9

 HEAD WILL BE SAVED ON UNIT   51 AT END OF TIME STEP   6, STRESS PERIOD    9
1
  VOLUMETRIC BUDGET FOR ENTIRE MODEL AT END OF TIME STEP  6 IN STRESS PERIOD   9
  ------------------------------------------------------------------------------

     CUMULATIVE VOLUMES      L**3       RATES FOR THIS TIME STEP      L**3/T
     ------------------                 ------------------------

           IN:                                      IN:
           ---                                      ---
             STORAGE =         449.9200               STORAGE =          49.9909
       CONSTANT HEAD =       2.3432E-02         CONSTANT HEAD =       4.7291E-03
               WELLS =           0.0000                 WELLS =           0.0000

            TOTAL IN =         449.9434              TOTAL IN =          49.9957

          OUT:                                     OUT:
          ----                                     ----
             STORAGE =           0.0000               STORAGE =           0.0000
       CONSTANT HEAD =           0.0000         CONSTANT HEAD =           0.0000
               WELLS =         450.0002                 WELLS =          50.0000

           TOTAL OUT =         450.0002             TOTAL OUT =          50.0000

            IN - OUT =      -5.6793E-02              IN - OUT =      -4.3411E-03

 PERCENT DISCREPANCY =          -0.01     PERCENT DISCREPANCY =          -0.01






          TIME SUMMARY AT END OF TIME STEP   6 IN STRESS PERIOD    9
                    SECONDS     MINUTES      HOURS       DAYS        YEARS
                    -----------------------------------------------------------
   TIME STEP LENGTH  14400.      240.00      4.0000     0.16667     4.56308E-04
 STRESS PERIOD TIME  86400.      1440.0      24.000      1.0000     2.73785E-03
         TOTAL TIME 7.77600E+05  12960.      216.00      9.0000     2.46407E-02
1
1
                            STRESS PERIOD NO.   10, LENGTH =   1.000000    
                            -----------------------------------------------

                              NUMBER OF TIME STEPS =     6

                               MULTIPLIER FOR DELT =     1.000

                            INITIAL TIME STEP SIZE =  0.1666667    

 WELL NO.  LAYER   ROW   COL   STRESS RATE         
 --------------------------------------------------
      1      2      1      1      -10.00    
      2      3      1      1      -10.00    
      3      4      1      1      -10.00    
      4      5      1      1      -10.00    
      5      6      1      1      -10.00    

      5 WELLS
 
 SOLVING FOR HEAD 

 NO OUTPUT CONTROL FOR STRESS PERIOD   10   TIME STEP   1
 
 SOLVING FOR HEAD 

 NO OUTPUT CONTROL FOR STRESS PERIOD   10   TIME STEP   2
 
 SOLVING FOR HEAD 

 NO OUTPUT CONTROL FOR STRESS PERIOD   10   TIME STEP   3
 
 SOLVING FOR HEAD 

 NO OUTPUT CONTROL FOR STRESS PERIOD   10   TIME STEP   4
 
 SOLVING FOR HEAD 

 NO OUTPUT CONTROL FOR STRESS PERIOD   10   TIME STEP   5
 
 SOLVING FOR HEAD 

 OUTPUT CONTROL FOR STRESS PERIOD   10   TIME STEP   6
    SAVE HEAD FOR ALL LAYERS
    SAVE BUDGET
 UBDSV1 SAVING "         STORAGE" ON UNIT  53 AT TIME STEP  6, STRESS PERIOD  10
 UBDSV2 SAVING "   CONSTANT HEAD" ON UNIT  53 AT TIME STEP  6, STRESS PERIOD  10
 UBDSV1 SAVING "FLOW RIGHT FACE " ON UNIT  53 AT TIME STEP  6, STRESS PERIOD  10
 UBDSV1 SAVING "FLOW LOWER FACE " ON UNIT  53 AT TIME STEP  6, STRESS PERIOD  10

 HEAD WILL BE SAVED ON UNIT   51 AT END OF TIME STEP   6, STRESS PERIOD   10
1
  VOLUMETRIC BUDGET FOR ENTIRE MODEL AT END OF TIME STEP  6 IN STRESS PERIOD  10
  ------------------------------------------------------------------------------

     CUMULATIVE VOLUMES      L**3       RATES FOR THIS TIME STEP      L**3/T
     ------------------                 ------------------------

           IN:                                      IN:
           ---                                      ---
             STORAGE =         499.9103               STORAGE =          49.9911
       CONSTANT HEAD =       2.8202E-02         CONSTANT HEAD =       4.7943E-03
               WELLS =           0.0000                 WELLS =           0.0000

            TOTAL IN =         499.9385              TOTAL IN =          49.9959

          OUT:                                     OUT:
          ----                                     ----
             STORAGE =           0.0000               STORAGE =           0.0000
       CONSTANT HEAD =           0.0000         CONSTANT HEAD =           0.0000
               WELLS =         500.0002                 WELLS =          50.0000

           TOTAL OUT =         500.0002             TOTAL OUT =          50.0000

            IN - OUT =      -6.1707E-02              IN - OUT =      -4.0703E-03

 PERCENT DISCREPANCY =          -0.01     PERCENT DISCREPANCY =          -0.01






          TIME SUMMARY AT END OF TIME STEP   6 IN STRESS PERIOD   10
                    SECONDS     MINUTES      HOURS       DAYS        YEARS
                    -----------------------------------------------------------
   TIME STEP LENGTH  14400.      240.00      4.0000     0.16667     4.56308E-04
 STRESS PERIOD TIME  86400.      1440.0      24.000      1.0000     2.73785E-03
         TOTAL TIME 8.64000E+05  14400.      240.00      10.000     2.73785E-02
1
1
                            STRESS PERIOD NO.   11, LENGTH =   1.000000    
                            -----------------------------------------------

                              NUMBER OF TIME STEPS =     6

                               MULTIPLIER FOR DELT =     1.000

                            INITIAL TIME STEP SIZE =  0.1666667    

 WELL NO.  LAYER   ROW   COL   STRESS RATE         
 --------------------------------------------------
      1      2      1      1      -10.00    
      2      3      1      1      -10.00    
      3      4      1      1      -10.00    
      4      5      1      1      -10.00    
      5      6      1      1      -10.00    

      5 WELLS
 
 SOLVING FOR HEAD 

 NO OUTPUT CONTROL FOR STRESS PERIOD   11   TIME STEP   1
 
 SOLVING FOR HEAD 

 NO OUTPUT CONTROL FOR STRESS PERIOD   11   TIME STEP   2
 
 SOLVING FOR HEAD 

 NO OUTPUT CONTROL FOR STRESS PERIOD   11   TIME STEP   3
 
 SOLVING FOR HEAD 

 NO OUTPUT CONTROL FOR STRESS PERIOD   11   TIME STEP   4
 
 SOLVING FOR HEAD 

 NO OUTPUT CONTROL FOR STRESS PERIOD   11   TIME STEP   5
 
 SOLVING FOR HEAD 

 OUTPUT CONTROL FOR STRESS PERIOD   11   TIME STEP   6
    SAVE HEAD FOR ALL LAYERS
    SAVE BUDGET
 UBDSV1 SAVING "         STORAGE" ON UNIT  53 AT TIME STEP  6, STRESS PERIOD  11
 UBDSV2 SAVING "   CONSTANT HEAD" ON UNIT  53 AT TIME STEP  6, STRESS PERIOD  11
 UBDSV1 SAVING "FLOW RIGHT FACE " ON UNIT  53 AT TIME STEP  6, STRESS PERIOD  11
 UBDSV1 SAVING "FLOW LOWER FACE " ON UNIT  53 AT TIME STEP  6, STRESS PERIOD  11

 HEAD WILL BE SAVED ON UNIT   51 AT END OF TIME STEP   6, STRESS PERIOD   11
1
  VOLUMETRIC BUDGET FOR ENTIRE MODEL AT END OF TIME STEP  6 IN STRESS PERIOD  11
  ------------------------------------------------------------------------------

     CUMULATIVE VOLUMES      L**3       RATES FOR THIS TIME STEP      L**3/T
     ------------------                 ------------------------

           IN:                                      IN:
           ---                                      ---
             STORAGE =         549.9011               STORAGE =          49.9904
       CONSTANT HEAD =       3.3023E-02         CONSTANT HEAD =       4.8391E-03
               WELLS =           0.0000                 WELLS =           0.0000

            TOTAL IN =         549.9341              TOTAL IN =          49.9952

          OUT:                                     OUT:
          ----                                     ----
             STORAGE =           0.0000               STORAGE =           0.0000
       CONSTANT HEAD =           0.0000         CONSTANT HEAD =           0.0000
               WELLS =         550.0002                 WELLS =          50.0000

           TOTAL OUT =         550.0002             TOTAL OUT =          50.0000

            IN - OUT =      -6.6040E-02              IN - OUT =      -4.7722E-03

 PERCENT DISCREPANCY =          -0.01     PERCENT DISCREPANCY =          -0.01






          TIME SUMMARY AT END OF TIME STEP   6 IN STRESS PERIOD   11
                    SECONDS     MINUTES      HOURS       DAYS        YEARS
                    -----------------------------------------------------------
   TIME STEP LENGTH  14400.      240.00      4.0000     0.16667     4.56308E-04
 STRESS PERIOD TIME  86400.      1440.0      24.000      1.0000     2.73785E-03
         TOTAL TIME 9.50400E+05  15840.      264.00      11.000     3.01164E-02
1
1
                            STRESS PERIOD NO.   12, LENGTH =   1.000000    
                            -----------------------------------------------

                              NUMBER OF TIME STEPS =     6

                               MULTIPLIER FOR DELT =     1.000

                            INITIAL TIME STEP SIZE =  0.1666667    

 WELL NO.  LAYER   ROW   COL   STRESS RATE         
 --------------------------------------------------
      1      2      1      1      -10.00    
      2      3      1      1      -10.00    
      3      4      1      1      -10.00    
      4      5      1      1      -10.00    
      5      6      1      1      -10.00    

      5 WELLS
 
 SOLVING FOR HEAD 

 NO OUTPUT CONTROL FOR STRESS PERIOD   12   TIME STEP   1
 
 SOLVING FOR HEAD 

 NO OUTPUT CONTROL FOR STRESS PERIOD   12   TIME STEP   2
 
 SOLVING FOR HEAD 

 NO OUTPUT CONTROL FOR STRESS PERIOD   12   TIME STEP   3
 
 SOLVING FOR HEAD 

 NO OUTPUT CONTROL FOR STRESS PERIOD   12   TIME STEP   4
 
 SOLVING FOR HEAD 

 NO OUTPUT CONTROL FOR STRESS PERIOD   12   TIME STEP   5
 
 SOLVING FOR HEAD 

 OUTPUT CONTROL FOR STRESS PERIOD   12   TIME STEP   6
    SAVE HEAD FOR ALL LAYERS
    SAVE BUDGET
 UBDSV1 SAVING "         STORAGE" ON UNIT  53 AT TIME STEP  6, STRESS PERIOD  12
 UBDSV2 SAVING "   CONSTANT HEAD" ON UNIT  53 AT TIME STEP  6, STRESS PERIOD  12
 UBDSV1 SAVING "FLOW RIGHT FACE " ON UNIT  53 AT TIME STEP  6, STRESS PERIOD  12
 UBDSV1 SAVING "FLOW LOWER FACE " ON UNIT  53 AT TIME STEP  6, STRESS PERIOD  12

 HEAD WILL BE SAVED ON UNIT   51 AT END OF TIME STEP   6, STRESS PERIOD   12
1
  VOLUMETRIC BUDGET FOR ENTIRE MODEL AT END OF TIME STEP  6 IN STRESS PERIOD  12
  ------------------------------------------------------------------------------

     CUMULATIVE VOLUMES      L**3       RATES FOR THIS TIME STEP      L**3/T
     ------------------                 ------------------------

           IN:                                      IN:
           ---                                      ---
             STORAGE =         599.8910               STORAGE =          49.9893
       CONSTANT HEAD =       3.7884E-02         CONSTANT HEAD =       4.8754E-03
               WELLS =           0.0000                 WELLS =           0.0000

            TOTAL IN =         599.9289              TOTAL IN =          49.9941

          OUT:                                     OUT:
          ----                                     ----
             STORAGE =           0.0000               STORAGE =           0.0000
       CONSTANT HEAD =           0.0000         CONSTANT HEAD =           0.0000
               WELLS =         600.0001                 WELLS =          50.0000

           TOTAL OUT =         600.0001             TOTAL OUT =          50.0000

            IN - OUT =      -7.1167E-02              IN - OUT =      -5.8632E-03

 PERCENT DISCREPANCY =          -0.01     PERCENT DISCREPANCY =          -0.01






          TIME SUMMARY AT END OF TIME STEP   6 IN STRESS PERIOD   12
                    SECONDS     MINUTES      HOURS       DAYS        YEARS
                    -----------------------------------------------------------
   TIME STEP LENGTH  14400.      240.00      4.0000     0.16667     4.56308E-04
 STRESS PERIOD TIME  86400.      1440.0      24.000      1.0000     2.73785E-03
         TOTAL TIME 1.03680E+06  17280.      288.00      12.000     3.28542E-02
1
1
                            STRESS PERIOD NO.   13, LENGTH =   1.000000    
                            -----------------------------------------------

                              NUMBER OF TIME STEPS =     6

                               MULTIPLIER FOR DELT =     1.000

                            INITIAL TIME STEP SIZE =  0.1666667    

 WELL NO.  LAYER   ROW   COL   STRESS RATE         
 --------------------------------------------------
      1      2      1      1      -10.00    
      2      3      1      1      -10.00    
      3      4      1      1      -10.00    
      4      5      1      1      -10.00    
      5      6      1      1      -10.00    

      5 WELLS
 
 SOLVING FOR HEAD 

 NO OUTPUT CONTROL FOR STRESS PERIOD   13   TIME STEP   1
 
 SOLVING FOR HEAD 

 NO OUTPUT CONTROL FOR STRESS PERIOD   13   TIME STEP   2
 
 SOLVING FOR HEAD 

 NO OUTPUT CONTROL FOR STRESS PERIOD   13   TIME STEP   3
 
 SOLVING FOR HEAD 

 NO OUTPUT CONTROL FOR STRESS PERIOD   13   TIME STEP   4
 
 SOLVING FOR HEAD 

 NO OUTPUT CONTROL FOR STRESS PERIOD   13   TIME STEP   5
 
 SOLVING FOR HEAD 

 OUTPUT CONTROL FOR STRESS PERIOD   13   TIME STEP   6
    SAVE HEAD FOR ALL LAYERS
    SAVE BUDGET
 UBDSV1 SAVING "         STORAGE" ON UNIT  53 AT TIME STEP  6, STRESS PERIOD  13
 UBDSV2 SAVING "   CONSTANT HEAD" ON UNIT  53 AT TIME STEP  6, STRESS PERIOD  13
 UBDSV1 SAVING "FLOW RIGHT FACE " ON UNIT  53 AT TIME STEP  6, STRESS PERIOD  13
 UBDSV1 SAVING "FLOW LOWER FACE " ON UNIT  53 AT TIME STEP  6, STRESS PERIOD  13

 HEAD WILL BE SAVED ON UNIT   51 AT END OF TIME STEP   6, STRESS PERIOD   13
1
  VOLUMETRIC BUDGET FOR ENTIRE MODEL AT END OF TIME STEP  6 IN STRESS PERIOD  13
  ------------------------------------------------------------------------------

     CUMULATIVE VOLUMES      L**3       RATES FOR THIS TIME STEP      L**3/T
[...]
 UBDSV1 SAVING "         STORAGE" ON UNIT  53 AT TIME STEP  6, STRESS PERIOD  25
 UBDSV2 SAVING "   CONSTANT HEAD" ON UNIT  53 AT TIME STEP  6, STRESS PERIOD  25
 UBDSV1 SAVING "FLOW RIGHT FACE " ON UNIT  53 AT TIME STEP  6, STRESS PERIOD  25
 UBDSV1 SAVING "FLOW LOWER FACE " ON UNIT  53 AT TIME STEP  6, STRESS PERIOD  25

 HEAD WILL BE SAVED ON UNIT   51 AT END OF TIME STEP   6, STRESS PERIOD   25
1
  VOLUMETRIC BUDGET FOR ENTIRE MODEL AT END OF TIME STEP  6 IN STRESS PERIOD  25
  ------------------------------------------------------------------------------

     CUMULATIVE VOLUMES      L**3       RATES FOR THIS TIME STEP      L**3/T
     ------------------                 ------------------------

           IN:                                      IN:
           ---                                      ---
             STORAGE =        1249.7595               STORAGE =          49.9873
       CONSTANT HEAD =           0.1040         CONSTANT HEAD =       5.2841E-03
               WELLS =           0.0000                 WELLS =           0.0000

            TOTAL IN =        1249.8635              TOTAL IN =          49.9926

          OUT:                                     OUT:
          ----                                     ----
             STORAGE =           0.0000               STORAGE =           0.0000
       CONSTANT HEAD =           0.0000         CONSTANT HEAD =           0.0000
               WELLS =        1250.0001                 WELLS =          50.0000

           TOTAL OUT =        1250.0001             TOTAL OUT =          50.0000

            IN - OUT =          -0.1366              IN - OUT =      -7.4158E-03

 PERCENT DISCREPANCY =          -0.01     PERCENT DISCREPANCY =          -0.01






          TIME SUMMARY AT END OF TIME STEP   6 IN STRESS PERIOD   25
                    SECONDS     MINUTES      HOURS       DAYS        YEARS
                    -----------------------------------------------------------
   TIME STEP LENGTH  14400.      240.00      4.0000     0.16667     4.56308E-04
 STRESS PERIOD TIME  86400.      1440.0      24.000      1.0000     2.73785E-03
         TOTAL TIME 2.16000E+06  36000.      600.00      25.000     6.84462E-02
1
1
                            STRESS PERIOD NO.   26, LENGTH =   1.000000    
                            -----------------------------------------------

                              NUMBER OF TIME STEPS =     6

                               MULTIPLIER FOR DELT =     1.000

                            INITIAL TIME STEP SIZE =  0.1666667    

 WELL NO.  LAYER   ROW   COL   STRESS RATE         
 --------------------------------------------------
      1      2      1      1      -10.00    
      2      3      1      1      -10.00    
      3      4      1      1      -10.00    
      4      5      1      1      -10.00    
      5      6      1      1      -10.00    

      5 WELLS
 
 SOLVING FOR HEAD 

 NO OUTPUT CONTROL FOR STRESS PERIOD   26   TIME STEP   1
 
 SOLVING FOR HEAD 

 NO OUTPUT CONTROL FOR STRESS PERIOD   26   TIME STEP   2
 
 SOLVING FOR HEAD 

 NO OUTPUT CONTROL FOR STRESS PERIOD   26   TIME STEP   3
 
 SOLVING FOR HEAD 

 NO OUTPUT CONTROL FOR STRESS PERIOD   26   TIME STEP   4
 
 SOLVING FOR HEAD 

 NO OUTPUT CONTROL FOR STRESS PERIOD   26   TIME STEP   5
 
 SOLVING FOR HEAD 

 OUTPUT CONTROL FOR STRESS PERIOD   26   TIME STEP   6
    SAVE HEAD FOR ALL LAYERS
    SAVE BUDGET
 UBDSV1 SAVING "         STORAGE" ON UNIT  53 AT TIME STEP  6, STRESS PERIOD  26
 UBDSV2 SAVING "   CONSTANT HEAD" ON UNIT  53 AT TIME STEP  6, STRESS PERIOD  26
 UBDSV1 SAVING "FLOW RIGHT FACE " ON UNIT  53 AT TIME STEP  6, STRESS PERIOD  26
 UBDSV1 SAVING "FLOW LOWER FACE " ON UNIT  53 AT TIME STEP  6, STRESS PERIOD  26

 HEAD WILL BE SAVED ON UNIT   51 AT END OF TIME STEP   6, STRESS PERIOD   26
1
  VOLUMETRIC BUDGET FOR ENTIRE MODEL AT END OF TIME STEP  6 IN STRESS PERIOD  26
  ------------------------------------------------------------------------------

     CUMULATIVE VOLUMES      L**3       RATES FOR THIS TIME STEP      L**3/T
     ------------------                 ------------------------

           IN:                                      IN:
           ---                                      ---
             STORAGE =        1299.7507               STORAGE =          49.9904
       CONSTANT HEAD =           0.1093         CONSTANT HEAD =       5.3158E-03
               WELLS =           0.0000                 WELLS =           0.0000

            TOTAL IN =        1299.8600              TOTAL IN =          49.9957

          OUT:                                     OUT:
          ----                                     ----
             STORAGE =           0.0000               STORAGE =           0.0000
       CONSTANT HEAD =           0.0000         CONSTANT HEAD =           0.0000
               WELLS =        1300.0004                 WELLS =          50.0000

           TOTAL OUT =        1300.0004             TOTAL OUT =          50.0000

            IN - OUT =          -0.1404              IN - OUT =      -4.3106E-03

 PERCENT DISCREPANCY =          -0.01     PERCENT DISCREPANCY =          -0.01






          TIME SUMMARY AT END OF TIME STEP   6 IN STRESS PERIOD   26
                    SECONDS     MINUTES      HOURS       DAYS        YEARS
                    -----------------------------------------------------------
   TIME STEP LENGTH  14400.      240.00      4.0000     0.16667     4.56308E-04
 STRESS PERIOD TIME  86400.      1440.0      24.000      1.0000     2.73785E-03
         TOTAL TIME 2.24640E+06  37440.      624.00      26.000     7.11840E-02
1
1
                            STRESS PERIOD NO.   27, LENGTH =   1.000000    
                            -----------------------------------------------

                              NUMBER OF TIME STEPS =     6

                               MULTIPLIER FOR DELT =     1.000

                            INITIAL TIME STEP SIZE =  0.1666667    

 WELL NO.  LAYER   ROW   COL   STRESS RATE         
 --------------------------------------------------
      1      2      1      1      -10.00    
      2      3      1      1      -10.00    
      3      4      1      1      -10.00    
      4      5      1      1      -10.00    
      5      6      1      1      -10.00    

      5 WELLS
 
 SOLVING FOR HEAD 

 NO OUTPUT CONTROL FOR STRESS PERIOD   27   TIME STEP   1
 
 SOLVING FOR HEAD 

 NO OUTPUT CONTROL FOR STRESS PERIOD   27   TIME STEP   2
 
 SOLVING FOR HEAD 

 NO OUTPUT CONTROL FOR STRESS PERIOD   27   TIME STEP   3
 
 SOLVING FOR HEAD 

 NO OUTPUT CONTROL FOR STRESS PERIOD   27   TIME STEP   4
 
 SOLVING FOR HEAD 

 NO OUTPUT CONTROL FOR STRESS PERIOD   27   TIME STEP   5
 
 SOLVING FOR HEAD 

 OUTPUT CONTROL FOR STRESS PERIOD   27   TIME STEP   6
    SAVE HEAD FOR ALL LAYERS
    SAVE BUDGET
 UBDSV1 SAVING "         STORAGE" ON UNIT  53 AT TIME STEP  6, STRESS PERIOD  27
 UBDSV2 SAVING "   CONSTANT HEAD" ON UNIT  53 AT TIME STEP  6, STRESS PERIOD  27
 UBDSV1 SAVING "FLOW RIGHT FACE " ON UNIT  53 AT TIME STEP  6, STRESS PERIOD  27
 UBDSV1 SAVING "FLOW LOWER FACE " ON UNIT  53 AT TIME STEP  6, STRESS PERIOD  27

 HEAD WILL BE SAVED ON UNIT   51 AT END OF TIME STEP   6, STRESS PERIOD   27
1
  VOLUMETRIC BUDGET FOR ENTIRE MODEL AT END OF TIME STEP  6 IN STRESS PERIOD  27
  ------------------------------------------------------------------------------

     CUMULATIVE VOLUMES      L**3       RATES FOR THIS TIME STEP      L**3/T
     ------------------                 ------------------------

           IN:                                      IN:
           ---                                      ---
             STORAGE =        1349.7412               STORAGE =          49.9901
       CONSTANT HEAD =           0.1146         CONSTANT HEAD =       5.3476E-03
               WELLS =           0.0000                 WELLS =           0.0000

            TOTAL IN =        1349.8558              TOTAL IN =          49.9954

          OUT:                                     OUT:
          ----                                     ----
             STORAGE =           0.0000               STORAGE =           0.0000
       CONSTANT HEAD =           0.0000         CONSTANT HEAD =           0.0000
               WELLS =        1350.0006                 WELLS =          50.0000

           TOTAL OUT =        1350.0006             TOTAL OUT =          50.0000

            IN - OUT =          -0.1448              IN - OUT =      -4.5967E-03

 PERCENT DISCREPANCY =          -0.01     PERCENT DISCREPANCY =          -0.01






          TIME SUMMARY AT END OF TIME STEP   6 IN STRESS PERIOD   27
                    SECONDS     MINUTES      HOURS       DAYS        YEARS
                    -----------------------------------------------------------
   TIME STEP LENGTH  14400.      240.00      4.0000     0.16667     4.56308E-04
 STRESS PERIOD TIME  86400.      1440.0      24.000      1.0000     2.73785E-03
         TOTAL TIME 2.33280E+06  38880.      648.00      27.000     7.39219E-02
1
1
                            STRESS PERIOD NO.   28, LENGTH =   1.000000    
                            -----------------------------------------------

                              NUMBER OF TIME STEPS =     6

                               MULTIPLIER FOR DELT =     1.000

                            INITIAL TIME STEP SIZE =  0.1666667    

 WELL NO.  LAYER   ROW   COL   STRESS RATE         
 --------------------------------------------------
      1      2      1      1      -10.00    
      2      3      1      1      -10.00    
      3      4      1      1      -10.00    
      4      5      1      1      -10.00    
      5      6      1      1      -10.00    

      5 WELLS
 
 SOLVING FOR HEAD 

 NO OUTPUT CONTROL FOR STRESS PERIOD   28   TIME STEP   1
 
 SOLVING FOR HEAD 

 NO OUTPUT CONTROL FOR STRESS PERIOD   28   TIME STEP   2
 
 SOLVING FOR HEAD 

 NO OUTPUT CONTROL FOR STRESS PERIOD   28   TIME STEP   3
 
 SOLVING FOR HEAD 

 NO OUTPUT CONTROL FOR STRESS PERIOD   28   TIME STEP   4
 
 SOLVING FOR HEAD 

 NO OUTPUT CONTROL FOR STRESS PERIOD   28   TIME STEP   5
 
 SOLVING FOR HEAD 

 OUTPUT CONTROL FOR STRESS PERIOD   28   TIME STEP   6
    SAVE HEAD FOR ALL LAYERS
    SAVE BUDGET
 UBDSV1 SAVING "         STORAGE" ON UNIT  53 AT TIME STEP  6, STRESS PERIOD  28
 UBDSV2 SAVING "   CONSTANT HEAD" ON UNIT  53 AT TIME STEP  6, STRESS PERIOD  28
 UBDSV1 SAVING "FLOW RIGHT FACE " ON UNIT  53 AT TIME STEP  6, STRESS PERIOD  28
 UBDSV1 SAVING "FLOW LOWER FACE " ON UNIT  53 AT TIME STEP  6, STRESS PERIOD  28

 HEAD WILL BE SAVED ON UNIT   51 AT END OF TIME STEP   6, STRESS PERIOD   28
1
  VOLUMETRIC BUDGET FOR ENTIRE MODEL AT END OF TIME STEP  6 IN STRESS PERIOD  28
  ------------------------------------------------------------------------------

     CUMULATIVE VOLUMES      L**3       RATES FOR THIS TIME STEP      L**3/T
     ------------------                 ------------------------

           IN:                                      IN:
           ---                                      ---
             STORAGE =        1399.7316               STORAGE =          49.9917
       CONSTANT HEAD =           0.1200         CONSTANT HEAD =       5.3795E-03
               WELLS =           0.0000                 WELLS =           0.0000

            TOTAL IN =        1399.8516              TOTAL IN =          49.9971

          OUT:                                     OUT:
          ----                                     ----
             STORAGE =           0.0000               STORAGE =           0.0000
       CONSTANT HEAD =           0.0000         CONSTANT HEAD =           0.0000
               WELLS =        1400.0009                 WELLS =          50.0000

           TOTAL OUT =        1400.0009             TOTAL OUT =          50.0000

            IN - OUT =          -0.1493              IN - OUT =      -2.8801E-03

 PERCENT DISCREPANCY =          -0.01     PERCENT DISCREPANCY =          -0.01






          TIME SUMMARY AT END OF TIME STEP   6 IN STRESS PERIOD   28
                    SECONDS     MINUTES      HOURS       DAYS        YEARS
                    -----------------------------------------------------------
   TIME STEP LENGTH  14400.      240.00      4.0000     0.16667     4.56308E-04
 STRESS PERIOD TIME  86400.      1440.0      24.000      1.0000     2.73785E-03
         TOTAL TIME 2.41920E+06  40320.      672.00      28.000     7.66597E-02
1
1
                            STRESS PERIOD NO.   29, LENGTH =   1.000000    
                            -----------------------------------------------

                              NUMBER OF TIME STEPS =     6

                               MULTIPLIER FOR DELT =     1.000

                            INITIAL TIME STEP SIZE =  0.1666667    

 WELL NO.  LAYER   ROW   COL   STRESS RATE         
 --------------------------------------------------
      1      2      1      1      -10.00    
      2      3      1      1      -10.00    
      3      4      1      1      -10.00    
      4      5      1      1      -10.00    
      5      6      1      1      -10.00    

      5 WELLS
 
 SOLVING FOR HEAD 

 NO OUTPUT CONTROL FOR STRESS PERIOD   29   TIME STEP   1
 
 SOLVING FOR HEAD 

 NO OUTPUT CONTROL FOR STRESS PERIOD   29   TIME STEP   2
 
 SOLVING FOR HEAD 

 NO OUTPUT CONTROL FOR STRESS PERIOD   29   TIME STEP   3
 
 SOLVING FOR HEAD 

 NO OUTPUT CONTROL FOR STRESS PERIOD   29   TIME STEP   4
 
 SOLVING FOR HEAD 

 NO OUTPUT CONTROL FOR STRESS PERIOD   29   TIME STEP   5
 
 SOLVING FOR HEAD 

 OUTPUT CONTROL FOR STRESS PERIOD   29   TIME STEP   6
    SAVE HEAD FOR ALL LAYERS
    SAVE BUDGET
 UBDSV1 SAVING "         STORAGE" ON UNIT  53 AT TIME STEP  6, STRESS PERIOD  29
 UBDSV2 SAVING "   CONSTANT HEAD" ON UNIT  53 AT TIME STEP  6, STRESS PERIOD  29
 UBDSV1 SAVING "FLOW RIGHT FACE " ON UNIT  53 AT TIME STEP  6, STRESS PERIOD  29
 UBDSV1 SAVING "FLOW LOWER FACE " ON UNIT  53 AT TIME STEP  6, STRESS PERIOD  29

 HEAD WILL BE SAVED ON UNIT   51 AT END OF TIME STEP   6, STRESS PERIOD   29
1
  VOLUMETRIC BUDGET FOR ENTIRE MODEL AT END OF TIME STEP  6 IN STRESS PERIOD  29
  ------------------------------------------------------------------------------

     CUMULATIVE VOLUMES      L**3       RATES FOR THIS TIME STEP      L**3/T
     ------------------                 ------------------------

           IN:                                      IN:
           ---                                      ---
             STORAGE =        1449.7211               STORAGE =          49.9918
       CONSTANT HEAD =           0.1254         CONSTANT HEAD =       5.4114E-03
               WELLS =           0.0000                 WELLS =           0.0000

            TOTAL IN =        1449.8464              TOTAL IN =          49.9972

          OUT:                                     OUT:
          ----                                     ----
             STORAGE =           0.0000               STORAGE =           0.0000
       CONSTANT HEAD =           0.0000         CONSTANT HEAD =           0.0000
               WELLS =        1450.0011                 WELLS =          50.0000

           TOTAL OUT =        1450.0011             TOTAL OUT =          50.0000

            IN - OUT =          -0.1547              IN - OUT =      -2.7542E-03

 PERCENT DISCREPANCY =          -0.01     PERCENT DISCREPANCY =          -0.01






          TIME SUMMARY AT END OF TIME STEP   6 IN STRESS PERIOD   29
                    SECONDS     MINUTES      HOURS       DAYS        YEARS
                    -----------------------------------------------------------
   TIME STEP LENGTH  14400.      240.00      4.0000     0.16667     4.56308E-04
 STRESS PERIOD TIME  86400.      1440.0      24.000      1.0000     2.73785E-03
         TOTAL TIME 2.50560E+06  41760.      696.00      29.000     7.93976E-02
1
1
                            STRESS PERIOD NO.   30, LENGTH =   1.000000    
                            -----------------------------------------------

                              NUMBER OF TIME STEPS =     6

                               MULTIPLIER FOR DELT =     1.000

                            INITIAL TIME STEP SIZE =  0.1666667    

 WELL NO.  LAYER   ROW   COL   STRESS RATE         
 --------------------------------------------------
      1      2      1      1      -10.00    
      2      3      1      1      -10.00    
      3      4      1      1      -10.00    
      4      5      1      1      -10.00    
      5      6      1      1      -10.00    

      5 WELLS
 
 SOLVING FOR HEAD 

 NO OUTPUT CONTROL FOR STRESS PERIOD   30   TIME STEP   1
 
 SOLVING FOR HEAD 

 NO OUTPUT CONTROL FOR STRESS PERIOD   30   TIME STEP   2
 
 SOLVING FOR HEAD 

 NO OUTPUT CONTROL FOR STRESS PERIOD   30   TIME STEP   3
 
 SOLVING FOR HEAD 

 NO OUTPUT CONTROL FOR STRESS PERIOD   30   TIME STEP   4
 
 SOLVING FOR HEAD 

 NO OUTPUT CONTROL FOR STRESS PERIOD   30   TIME STEP   5
 
 SOLVING FOR HEAD 

 OUTPUT CONTROL FOR STRESS PERIOD   30   TIME STEP   6
    SAVE HEAD FOR ALL LAYERS
    SAVE BUDGET
 UBDSV1 SAVING "         STORAGE" ON UNIT  53 AT TIME STEP  6, STRESS PERIOD  30
 UBDSV2 SAVING "   CONSTANT HEAD" ON UNIT  53 AT TIME STEP  6, STRESS PERIOD  30
 UBDSV1 SAVING "FLOW RIGHT FACE " ON UNIT  53 AT TIME STEP  6, STRESS PERIOD  30
 UBDSV1 SAVING "FLOW LOWER FACE " ON UNIT  53 AT TIME STEP  6, STRESS PERIOD  30

 HEAD WILL BE SAVED ON UNIT   51 AT END OF TIME STEP   6, STRESS PERIOD   30
1
  VOLUMETRIC BUDGET FOR ENTIRE MODEL AT END OF TIME STEP  6 IN STRESS PERIOD  30
  ------------------------------------------------------------------------------

     CUMULATIVE VOLUMES      L**3       RATES FOR THIS TIME STEP      L**3/T
     ------------------                 ------------------------

           IN:                                      IN:
           ---                                      ---
             STORAGE =        1499.7111               STORAGE =          49.9891
       CONSTANT HEAD =           0.1308         CONSTANT HEAD =       5.4433E-03
               WELLS =           0.0000                 WELLS =           0.0000

            TOTAL IN =        1499.8418              TOTAL IN =          49.9945

          OUT:                                     OUT:
          ----                                     ----
             STORAGE =           0.0000               STORAGE =           0.0000
       CONSTANT HEAD =           0.0000         CONSTANT HEAD =           0.0000
               WELLS =        1500.0013                 WELLS =          50.0000

           TOTAL OUT =        1500.0013             TOTAL OUT =          50.0000

            IN - OUT =          -0.1595              IN - OUT =      -5.4626E-03

 PERCENT DISCREPANCY =          -0.01     PERCENT DISCREPANCY =          -0.01






          TIME SUMMARY AT END OF TIME STEP   6 IN STRESS PERIOD   30
                    SECONDS     MINUTES      HOURS       DAYS        YEARS
                    -----------------------------------------------------------
   TIME STEP LENGTH  14400.      240.00      4.0000     0.16667     4.56308E-04
 STRESS PERIOD TIME  86400.      1440.0      24.000      1.0000     2.73785E-03
         TOTAL TIME 2.59200E+06  43200.      720.00      30.000     8.21354E-02
1

 Run end date and time (yyyy/mm/dd hh:mm:ss): 2018/04/17 21:11:40
 Elapsed run time:  0.156 Seconds

