ident  = #Delft3D-FLOW  .03.02 3.42.00.17790# 
runtxt = #                              # 
filcco = #../input/DCSMv6/rooster/csm_activeonly.grd# 
anglat = 0 
grdang = 0 
filgrd = #test.enc# 
mnkmax = 1121  1261     1 
thick  = 100 
fildep = #test.dep.# 
fildry = #test.dry# 
filtd  = #test.thd# 
itdate = #2006-12-25# 
tunit  = #M# 
tstart = 0 
tstop  = 535680 
dt     = 1 
tzone  = 0 
sub1   = #    # 
sub2   = #   # 
wnsvwp = #N# 
wndint = #Y# 
zeta0  = 0 
u0     = 0 
v0     = 0 
s0     = 31 
t0     = 15 
restid = ## 
filbnd = #test.bnd# 
filbch = ## 
filbct = ## 
filbcq = ## 
filbcc = ## 
filana = ## 
filcor = ## 
rettis = 100 
rettib = 100 
ag     = 9.81 
rhow   = 1000 
tempw  = 15 
salw   = 31 
wstres = 0.00063             0       0.00723           100       0.00723           100 
rhoa   = 1 
betac  = 0.5 
equili = #N# 
tkemod = #K-epsilon   # 
ktemp  = 0 
fclou  = 0 
sarea  = 0 
secchi = 13.3858 
stantn = 0.00145 
dalton = 0.0012 
filtmp = ## 
temint = #Y# 
roumet = #C# 
filrgh = ## 
ccofu  = 65 
ccofv  = 65 
xlo    = 0 
vicouv = 1 
dicouv = 10 
htur2d = #N# 
vicoww = 0 
dicoww = 0 
irov   = 0 
iter   = 2 
dryflp = #YES# 
dpsopt = #MEAN# 
dpuopt = #MEAN# 
dryflc = 0.1 
dco    = -999 
tlfsmo = 1440 
thetqh = 0 
forfuv = #Y# 
forfww = #N# 
sigcor = #N# 
trasol = #Cyclic-method# 
momsol = #Cyclic# 
filsrc = ## 
fildis = ## 
filsta = ## 
filcrs = ## 
smhydr = #YYYYY# 
smderv = #YYYYYY# 
smproc = #YYYYYYYYYY# 
pmhydr = #YYYYYY# 
pmderv = #YYY# 
pmproc = #YYYYYYYYYY# 
shhydr = #YYYY# 
shderv = #YYYYY# 
shproc = #YYYYYYYYYY# 
shflux = #YYYY# 
phhydr = #NNNNNN# 
phderv = #NNN# 
phproc = #NNNNNNNNNN# 
phflux = #NNNN# 
online = #N# 
flmap  = 0  0  0 
flhis  = 0  0  0 
flpp   = 0  0  0 
flrst  = 0 
barocp = #Y# 
cstbnd = #Y# 
denfrm = #UNESCO# 
commnt = #Written by delft3d_io_mdf.m of G.J. de Boer on 12-May-2013 20:55:48# 
