*
* Deltares, Delft3D-RGFGRID Version 4.18.01.18383, Sep  7 2011, 14:23:22
* File creation date: 2011-11-18, 12:09:15
*
Coordinate System = Cartesian
     165     264
 0 0 0
 ETA=    1   0.00000000000000000E+00   0.00000000000000000E+00   0.00000000000000000E+00   0.00000000000000000E+00   0.00000000000000000E+00
             0.00000000000000000E+00   0.00000000000000000E+00   0.00000000000000000E+00   0.00000000000000000E+00   0.00000000000000000E+00
             0.00000000000000000E+00   0.00000000000000000E+00   0.00000000000000000E+00   0.00000000000000000E+00   0.00000000000000000E+00
             0.00000000000000000E+00   0.00000000000000000E+00   0.00000000000000000E+00   0.00000000000000000E+00   0.00000000000000000E+00
             0.00000000000000000E+00   0.00000000000000000E+00   0.00000000000000000E+00   0.00000000000000000E+00   0.00000000000000000E+00
             0.00000000000000000E+00   0.00000000000000000E+00   0.00000000000000000E+00   0.00000000000000000E+00   0.00000000000000000E+00
             0.00000000000000000E+00   0.00000000000000000E+00   0.00000000000000000E+00   0.00000000000000000E+00   0.00000000000000000E+00
             0.00000000000000000E+00   0.00000000000000000E+00   0.00000000000000000E+00   0.00000000000000000E+00   0.00000000000000000E+00
             0.00000000000000000E+00   0.00000000000000000E+00   0.00000000000000000E+00   0.00000000000000000E+00   0.00000000000000000E+00
             0.00000000000000000E+00   0.00000000000000000E+00   0.00000000000000000E+00   0.00000000000000000E+00   0.00000000000000000E+00
             0.00000000000000000E+00   0.00000000000000000E+00   0.00000000000000000E+00   0.00000000000000000E+00   0.00000000000000000E+00
             0.00000000000000000E+00   0.00000000000000000E+00   0.00000000000000000E+00   0.00000000000000000E+00   0.00000000000000000E+00
             0.00000000000000000E+00   0.00000000000000000E+00   0.00000000000000000E+00   0.00000000000000000E+00   0.00000000000000000E+00
             0.00000000000000000E+00   0.00000000000000000E+00   0.00000000000000000E+00   0.00000000000000000E+00   0.00000000000000000E+00
             0.00000000000000000E+00   0.00000000000000000E+00   0.00000000000000000E+00   0.00000000000000000E+00   0.00000000000000000E+00
             0.00000000000000000E+00   0.00000000000000000E+00   0.00000000000000000E+00   0.00000000000000000E+00   0.00000000000000000E+00
             0.00000000000000000E+00   0.00000000000000000E+00   0.00000000000000000E+00   0.00000000000000000E+00   0.00000000000000000E+00
             0.00000000000000000E+00   0.00000000000000000E+00   0.00000000000000000E+00   0.00000000000000000E+00   0.00000000000000000E+00
             0.00000000000000000E+00   0.00000000000000000E+00   0.00000000000000000E+00   0.00000000000000000E+00   0.00000000000000000E+00
             0.00000000000000000E+00   0.00000000000000000E+00   0.00000000000000000E+00   0.00000000000000000E+00   0.00000000000000000E+00
             0.00000000000000000E+00   0.00000000000000000E+00   0.00000000000000000E+00   4.50000000000000000E+04   4.52500000000000000E+04
             4.55000000000000000E+04   4.57500000000000000E+04   4.60000000000000000E+04   4.62500000000000000E+04   4.65000000000000000E+04
             4.67500000000000000E+04   4.70000000000000000E+04   4.72500000000000000E+04   4.75000000000000000E+04   4.77500000000000000E+04
             4.80000000000000000E+04   4.82500000000000000E+04   4.85000000000000000E+04   4.87500000000000000E+04   4.90000000000000000E+04
             4.92500000000000000E+04   4.95000000000000000E+04   4.97500000000000000E+04   5.00000000000000000E+04   5.02500000000000000E+04
             5.05000000000000000E+04   5.07500000000000000E+04   0.00000000000000000E+00   0.00000000000000000E+00   0.00000000000000000E+00
             0.00000000000000000E+00   0.00000000000000000E+00   0.00000000000000000E+00   0.00000000000000000E+00   0.00000000000000000E+00
             0.00000000000000000E+00   0.00000000000000000E+00   0.00000000000000000E+00   0.00000000000000000E+00   0.00000000000000000E+00
             0.00000000000000000E+00   0.00000000000000000E+00   0.00000000000000000E+00   0.00000000000000000E+00   0.00000000000000000E+00
             0.00000000000000000E+00   0.00000000000000000E+00   0.00000000000000000E+00   0.00000000000000000E+00   0.00000000000000000E+00
             0.00000000000000000E+00   0.00000000000000000E+00   0.00000000000000000E+00   0.00000000000000000E+00   0.00000000000000000E+00
             0.00000000000000000E+00   0.00000000000000000E+00   0.00000000000000000E+00   0.00000000000000000E+00   0.00000000000000000E+00
             0.00000000000000000E+00   0.00000000000000000E+00   0.00000000000000000E+00   0.00000000000000000E+00   0.00000000000000000E+00
 ETA=    2   0.00000000000000000E+00   0.00000000000000000E+00   0.00000000000000000E+00   0.00000000000000000E+00   0.00000000000000000E+00
             0.00000000000000000E+00   0.00000000000000000E+00   0.00000000000000000E+00   0.00000000000000000E+00   0.00000000000000000E+00
             0.00000000000000000E+00   0.00000000000000000E+00   0.00000000000000000E+00   0.00000000000000000E+00   0.00000000000000000E+00
             0.00000000000000000E+00   0.00000000000000000E+00   0.00000000000000000E+00   0.00000000000000000E+00   0.00000000000000000E+00
             0.00000000000000000E+00   0.00000000000000000E+00   0.00000000000000000E+00   0.00000000000000000E+00   0.00000000000000000E+00
             0.00000000000000000E+00   0.00000000000000000E+00   0.00000000000000000E+00   0.00000000000000000E+00   0.00000000000000000E+00
             0.00000000000000000E+00   0.00000000000000000E+00   0.00000000000000000E+00   0.00000000000000000E+00   0.00000000000000000E+00
             0.00000000000000000E+00   0.00000000000000000E+00   0.00000000000000000E+00   0.00000000000000000E+00   0.00000000000000000E+00
             0.00000000000000000E+00   0.00000000000000000E+00   0.00000000000000000E+00   0.00000000000000000E+00   0.00000000000000000E+00
             0.00000000000000000E+00   0.00000000000000000E+00   0.00000000000000000E+00   0.00000000000000000E+00   0.00000000000000000E+00
             0.00000000000000000E+00   0.00000000000000000E+00   0.00000000000000000E+00   0.00000000000000000E+00   0.00000000000000000E+00
             0.00000000000000000E+00   0.00000000000000000E+00   0.00000000000000000E+00   0.00000000000000000E+00   0.00000000000000000E+00
             0.00000000000000000E+00   0.00000000000000000E+00   0.00000000000000000E+00   0.00000000000000000E+00   0.00000000000000000E+00
             0.00000000000000000E+00   0.00000000000000000E+00   0.00000000000000000E+00   0.00000000000000000E+00   0.00000000000000000E+00
             0.00000000000000000E+00   0.00000000000000000E+00   0.00000000000000000E+00   0.00000000000000000E+00   0.00000000000000000E+00
             0.00000000000000000E+00   0.00000000000000000E+00   0.00000000000000000E+00   0.00000000000000000E+00   0.00000000000000000E+00
             0.00000000000000000E+00   0.00000000000000000E+00   3.97500000000000000E+04   4.00000000000000000E+04   4.02500000000000000E+04
             4.05000000000000000E+04   4.07500000000000000E+04   4.10000000000000000E+04   4.12500000000000000E+04   4.15000000000000000E+04
             4.17500000000000000E+04   4.20000000000000000E+04   4.22500000000000000E+04   4.25000000000000000E+04   4.27500000000000000E+04
             4.30000000000000000E+04   4.32500000000000000E+04   4.35000000000000000E+04   4.37500000000000000E+04   4.40000000000000000E+04
             4.42500000000000000E+04   0.00000000000000000E+00   0.00000000000000000E+00   4.50000000000000000E+04   4.52500000000000000E+04
             4.55000000000000000E+04   4.57500000000000000E+04   4.60000000000000000E+04   4.62500000000000000E+04   4.65000000000000000E+04
             4.67500000000000000E+04   4.70000000000000000E+04   4.72500000000000000E+04   4.75000000000000000E+04   4.77500000000000000E+04
             4.80000000000000000E+04   4.82500000000000000E+04   4.85000000000000000E+04   4.87500000000000000E+04   4.90000000000000000E+04
             4.92500000000000000E+04   4.95000000000000000E+04   4.97500000000000000E+04   5.00000000000000000E+04   5.02500000000000000E+04
             5.05000000000000000E+04   5.07500000000000000E+04   0.00000000000000000E+00   0.00000000000000000E+00   0.00000000000000000E+00
             0.00000000000000000E+00   0.00000000000000000E+00   0.00000000000000000E+00   0.00000000000000000E+00   0.00000000000000000E+00
             0.00000000000000000E+00   0.00000000000000000E+00   0.00000000000000000E+00   0.00000000000000000E+00   0.00000000000000000E+00
             0.00000000000000000E+00   0.00000000000000000E+00   0.00000000000000000E+00   0.00000000000000000E+00   0.00000000000000000E+00
             0.00000000000000000E+00   0.00000000000000000E+00   0.00000000000000000E+00   0.00000000000000000E+00   0.00000000000000000E+00
             0.00000000000000000E+00   0.00000000000000000E+00   0.00000000000000000E+00   0.00000000000000000E+00   0.00000000000000000E+00
             0.00000000000000000E+00   0.00000000000000000E+00   0.00000000000000000E+00   0.00000000000000000E+00   0.00000000000000000E+00
             0.00000000000000000E+00   0.00000000000000000E+00   0.00000000000000000E+00   0.00000000000000000E+00   0.00000000000000000E+00
 ETA=    3   0.00000000000000000E+00   0.00000000000000000E+00   0.00000000000000000E+00   0.00000000000000000E+00   0.00000000000000000E+00
             0.00000000000000000E+00   0.00000000000000000E+00   0.00000000000000000E+00   0.00000000000000000E+00   0.00000000000000000E+00
             0.00000000000000000E+00   0.00000000000000000E+00   0.00000000000000000E+00   0.00000000000000000E+00   0.00000000000000000E+00
             0.00000000000000000E+00   0.00000000000000000E+00   0.00000000000000000E+00   0.00000000000000000E+00   0.00000000000000000E+00
             0.00000000000000000E+00   0.00000000000000000E+00   0.00000000000000000E+00   0.00000000000000000E+00   0.00000000000000000E+00
             0.00000000000000000E+00   0.00000000000000000E+00   0.00000000000000000E+00   0.00000000000000000E+00   0.00000000000000000E+00
             0.00000000000000000E+00   0.00000000000000000E+00   0.00000000000000000E+00   0.00000000000000000E+00   0.00000000000000000E+00
             0.00000000000000000E+00   0.00000000000000000E+00   0.00000000000000000E+00   0.00000000000000000E+00   0.00000000000000000E+00
             0.00000000000000000E+00   0.00000000000000000E+00   0.00000000000000000E+00   0.00000000000000000E+00   0.00000000000000000E+00
             0.00000000000000000E+00   0.00000000000000000E+00   0.00000000000000000E+00   0.00000000000000000E+00   0.00000000000000000E+00
             0.00000000000000000E+00   0.00000000000000000E+00   0.00000000000000000E+00   0.00000000000000000E+00   0.00000000000000000E+00
             0.00000000000000000E+00   0.00000000000000000E+00   0.00000000000000000E+00   0.00000000000000000E+00   0.00000000000000000E+00
             0.00000000000000000E+00   0.00000000000000000E+00   0.00000000000000000E+00   0.00000000000000000E+00   0.00000000000000000E+00
             0.00000000000000000E+00   0.00000000000000000E+00   0.00000000000000000E+00   0.00000000000000000E+00   0.00000000000000000E+00
             0.00000000000000000E+00   0.00000000000000000E+00   0.00000000000000000E+00   0.00000000000000000E+00   0.00000000000000000E+00
             0.00000000000000000E+00   0.00000000000000000E+00   0.00000000000000000E+00   0.00000000000000000E+00   0.00000000000000000E+00
             0.00000000000000000E+00   3.95000000000000000E+04   3.97500000000000000E+04   4.00000000000000000E+04   4.02500000000000000E+04
             4.05000000000000000E+04   4.07500000000000000E+04   4.10000000000000000E+04   4.12500000000000000E+04   4.15000000000000000E+04
             4.17500000000000000E+04   4.20000000000000000E+04   4.22500000000000000E+04   4.25000000000000000E+04   4.27500000000000000E+04
             4.30000000000000000E+04   4.32500000000000000E+04   4.35000000000000000E+04   4.37500000000000000E+04   4.40000000000000000E+04
             4.42500000000000000E+04   4.45000000000000000E+04   4.47500000000000000E+04   4.50000000000000000E+04   4.52500000000000000E+04
             4.55000000000000000E+04   4.57500000000000000E+04   4.60000000000000000E+04   4.62500000000000000E+04   4.65000000000000000E+04
             4.67500000000000000E+04   4.70000000000000000E+04   4.72500000000000000E+04   4.75000000000000000E+04   4.77500000000000000E+04
             4.80000000000000000E+04   4.82500000000000000E+04   4.85000000000000000E+04   4.87500000000000000E+04   4.90000000000000000E+04
             4.92500000000000000E+04   4.95000000000000000E+04   4.97500000000000000E+04   5.00000000000000000E+04   5.02500000000000000E+04
             5.05000000000000000E+04   5.07500000000000000E+04   0.00000000000000000E+00   0.00000000000000000E+00   0.00000000000000000E+00
             0.00000000000000000E+00   0.00000000000000000E+00   0.00000000000000000E+00   0.00000000000000000E+00   0.00000000000000000E+00
             0.00000000000000000E+00   0.00000000000000000E+00   0.00000000000000000E+00   0.00000000000000000E+00   0.00000000000000000E+00
             0.00000000000000000E+00   0.00000000000000000E+00   0.00000000000000000E+00   0.00000000000000000E+00   0.00000000000000000E+00
             0.00000000000000000E+00   0.00000000000000000E+00   0.00000000000000000E+00   0.00000000000000000E+00   0.00000000000000000E+00
             0.00000000000000000E+00   0.00000000000000000E+00   0.00000000000000000E+00   0.00000000000000000E+00   0.00000000000000000E+00
             0.00000000000000000E+00   0.00000000000000000E+00   0.00000000000000000E+00   0.00000000000000000E+00   0.00000000000000000E+00
             0.00000000000000000E+00   0.00000000000000000E+00   0.00000000000000000E+00   0.00000000000000000E+00   0.00000000000000000E+00
 ETA=    4   0.00000000000000000E+00   0.00000000000000000E+00   0.00000000000000000E+00   0.00000000000000000E+00   0.00000000000000000E+00
             0.00000000000000000E+00   0.00000000000000000E+00   0.00000000000000000E+00   0.00000000000000000E+00   0.00000000000000000E+00
             0.00000000000000000E+00   0.00000000000000000E+00   0.00000000000000000E+00   0.00000000000000000E+00   0.00000000000000000E+00
             0.00000000000000000E+00   0.00000000000000000E+00   0.00000000000000000E+00   0.00000000000000000E+00   0.00000000000000000E+00
             0.00000000000000000E+00   0.00000000000000000E+00   0.00000000000000000E+00   0.00000000000000000E+00   0.00000000000000000E+00
             0.00000000000000000E+00   0.00000000000000000E+00   0.00000000000000000E+00   0.00000000000000000E+00   0.00000000000000000E+00
             0.00000000000000000E+00   0.00000000000000000E+00   0.00000000000000000E+00   0.00000000000000000E+00   0.00000000000000000E+00
             0.00000000000000000E+00   0.00000000000000000E+00   0.00000000000000000E+00   0.00000000000000000E+00   0.00000000000000000E+00
             0.00000000000000000E+00   0.00000000000000000E+00   0.00000000000000000E+00   0.00000000000000000E+00   0.00000000000000000E+00
             0.00000000000000000E+00   0.00000000000000000E+00   0.00000000000000000E+00   0.00000000000000000E+00   0.00000000000000000E+00
             0.00000000000000000E+00   0.00000000000000000E+00   0.00000000000000000E+00   0.00000000000000000E+00   0.00000000000000000E+00
             0.00000000000000000E+00   0.00000000000000000E+00   0.00000000000000000E+00   0.00000000000000000E+00   0.00000000000000000E+00
             0.00000000000000000E+00   0.00000000000000000E+00   0.00000000000000000E+00   0.00000000000000000E+00   0.00000000000000000E+00
             0.00000000000000000E+00   0.00000000000000000E+00   0.00000000000000000E+00   0.00000000000000000E+00   0.00000000000000000E+00
             0.00000000000000000E+00   0.00000000000000000E+00   0.00000000000000000E+00   0.00000000000000000E+00   0.00000000000000000E+00
             0.00000000000000000E+00   0.00000000000000000E+00   0.00000000000000000E+00   0.00000000000000000E+00   0.00000000000000000E+00
             0.00000000000000000E+00   3.95000000000000000E+04   3.97500000000000000E+04   4.00000000000000000E+04   4.02500000000000000E+04
             4.05000000000000000E+04   4.07500000000000000E+04   4.10000000000000000E+04   4.12500000000000000E+04   4.15000000000000000E+04
             4.17500000000000000E+04   4.20000000000000000E+04   4.22500000000000000E+04   4.25000000000000000E+04   4.27500000000000000E+04
             4.30000000000000000E+04   4.32500000000000000E+04   4.35000000000000000E+04   4.37500000000000000E+04   4.40000000000000000E+04
             4.42500000000000000E+04   4.45000000000000000E+04   4.47500000000000000E+04   4.50000000000000000E+04   4.52500000000000000E+04
             4.55000000000000000E+04   4.57500000000000000E+04   4.60000000000000000E+04   4.62500000000000000E+04   4.65000000000000000E+04
             4.67500000000000000E+04   4.70000000000000000E+04   4.72500000000000000E+04   4.75000000000000000E+04   4.77500000000000000E+04
             4.80000000000000000E+04   4.82500000000000000E+04   4.85000000000000000E+04   4.87500000000000000E+04   4.90000000000000000E+04
             4.92500000000000000E+04   4.95000000000000000E+04   4.97500000000000000E+04   5.00000000000000000E+04   5.02500000000000000E+04
             5.05000000000000000E+04   5.07500000000000000E+04   0.00000000000000000E+00   0.00000000000000000E+00   0.00000000000000000E+00
             0.00000000000000000E+00   0.00000000000000000E+00   0.00000000000000000E+00   0.00000000000000000E+00   0.00000000000000000E+00
             0.00000000000000000E+00   0.00000000000000000E+00   0.00000000000000000E+00   0.00000000000000000E+00   0.00000000000000000E+00
             0.00000000000000000E+00   0.00000000000000000E+00   0.00000000000000000E+00   0.00000000000000000E+00   0.00000000000000000E+00
             0.00000000000000000E+00   0.00000000000000000E+00   0.00000000000000000E+00   0.00000000000000000E+00   0.00000000000000000E+00
             0.00000000000000000E+00   0.00000000000000000E+00   0.00000000000000000E+00   0.00000000000000000E+00   0.00000000000000000E+00
             0.00000000000000000E+00   0.00000000000000000E+00   0.00000000000000000E+00   0.00000000000000000E+00   0.00000000000000000E+00
             0.00000000000000000E+00   0.00000000000000000E+00   0.00000000000000000E+00   0.00000000000000000E+00   0.00000000000000000E+00
 ETA=    5   0.00000000000000000E+00   0.00000000000000000E+00   0.00000000000000000E+00   0.00000000000000000E+00   0.00000000000000000E+00
             0.00000000000000000E+00   0.00000000000000000E+00   0.00000000000000000E+00   0.00000000000000000E+00   0.00000000000000000E+00
             0.00000000000000000E+00   0.00000000000000000E+00   0.00000000000000000E+00   0.00000000000000000E+00   0.00000000000000000E+00
             0.00000000000000000E+00   0.00000000000000000E+00   0.00000000000000000E+00   0.00000000000000000E+00   0.00000000000000000E+00
             0.00000000000000000E+00   0.00000000000000000E+00   0.00000000000000000E+00   0.00000000000000000E+00   0.00000000000000000E+00
             0.00000000000000000E+00   0.00000000000000000E+00   0.00000000000000000E+00   0.00000000000000000E+00   0.00000000000000000E+00
             0.00000000000000000E+00   0.00000000000000000E+00   0.00000000000000000E+00   0.00000000000000000E+00   0.00000000000000000E+00
             0.00000000000000000E+00   0.00000000000000000E+00   0.00000000000000000E+00   0.00000000000000000E+00   0.00000000000000000E+00
             0.00000000000000000E+00   0.00000000000000000E+00   0.00000000000000000E+00   0.00000000000000000E+00   0.00000000000000000E+00
             0.00000000000000000E+00   0.00000000000000000E+00   0.00000000000000000E+00   0.00000000000000000E+00   0.00000000000000000E+00
             0.00000000000000000E+00   0.00000000000000000E+00   0.00000000000000000E+00   0.00000000000000000E+00   0.00000000000000000E+00
             0.00000000000000000E+00   0.00000000000000000E+00   0.00000000000000000E+00   0.00000000000000000E+00   0.00000000000000000E+00
             0.00000000000000000E+00   0.00000000000000000E+00   0.00000000000000000E+00   0.00000000000000000E+00   0.00000000000000000E+00
             0.00000000000000000E+00   0.00000000000000000E+00   0.00000000000000000E+00   0.00000000000000000E+00   0.00000000000000000E+00
             0.00000000000000000E+00   0.00000000000000000E+00   0.00000000000000000E+00   0.00000000000000000E+00   0.00000000000000000E+00
             0.00000000000000000E+00   0.00000000000000000E+00   0.00000000000000000E+00   0.00000000000000000E+00   0.00000000000000000E+00
             0.00000000000000000E+00   3.95000000000000000E+04   3.97500000000000000E+04   4.00000000000000000E+04   4.02500000000000000E+04
             4.05000000000000000E+04   4.07500000000000000E+04   4.10000000000000000E+04   4.12500000000000000E+04   4.15000000000000000E+04
             4.17500000000000000E+04   4.20000000000000000E+04   4.22500000000000000E+04   4.25000000000000000E+04   4.27500000000000000E+04
             4.30000000000000000E+04   4.32500000000000000E+04   4.35000000000000000E+04   4.37500000000000000E+04   4.40000000000000000E+04
             4.42500000000000000E+04   4.45000000000000000E+04   4.47500000000000000E+04   4.50000000000000000E+04   4.52500000000000000E+04
             4.55000000000000000E+04   4.57500000000000000E+04   4.60000000000000000E+04   4.62500000000000000E+04   4.65000000000000000E+04
             4.67500000000000000E+04   4.70000000000000000E+04   4.72500000000000000E+04   4.75000000000000000E+04   4.77500000000000000E+04
             4.80000000000000000E+04   4.82500000000000000E+04   4.85000000000000000E+04   4.87500000000000000E+04   4.90000000000000000E+04
             4.92500000000000000E+04   4.95000000000000000E+04   4.97500000000000000E+04   5.00000000000000000E+04   5.02500000000000000E+04
             5.05000000000000000E+04   5.07500000000000000E+04   0.00000000000000000E+00   0.00000000000000000E+00   0.00000000000000000E+00
             0.00000000000000000E+00   0.00000000000000000E+00   0.00000000000000000E+00   0.00000000000000000E+00   0.00000000000000000E+00
             0.00000000000000000E+00   0.00000000000000000E+00   0.00000000000000000E+00   0.00000000000000000E+00   0.00000000000000000E+00
             0.00000000000000000E+00   0.00000000000000000E+00   0.00000000000000000E+00   0.00000000000000000E+00   0.00000000000000000E+00
             0.00000000000000000E+00   0.00000000000000000E+00   0.00000000000000000E+00   0.00000000000000000E+00   0.00000000000000000E+00
             0.00000000000000000E+00   0.00000000000000000E+00   0.00000000000000000E+00   0.00000000000000000E+00   0.00000000000000000E+00
             0.00000000000000000E+00   0.00000000000000000E+00   0.00000000000000000E+00   0.00000000000000000E+00   0.00000000000000000E+00
             0.00000000000000000E+00   0.00000000000000000E+00   0.00000000000000000E+00   0.00000000000000000E+00   0.00000000000000000E+00
 ETA=    6   0.00000000000000000E+00   0.00000000000000000E+00   0.00000000000000000E+00   0.00000000000000000E+00   0.00000000000000000E+00
             0.00000000000000000E+00   0.00000000000000000E+00   0.00000000000000000E+00   0.00000000000000000E+00   0.00000000000000000E+00
             0.00000000000000000E+00   0.00000000000000000E+00   0.00000000000000000E+00   0.00000000000000000E+00   0.00000000000000000E+00
             0.00000000000000000E+00   0.00000000000000000E+00   0.00000000000000000E+00   0.00000000000000000E+00   0.00000000000000000E+00
             0.00000000000000000E+00   0.00000000000000000E+00   0.00000000000000000E+00   0.00000000000000000E+00   0.00000000000000000E+00
             0.00000000000000000E+00   0.00000000000000000E+00   0.00000000000000000E+00   0.00000000000000000E+00   0.00000000000000000E+00
             0.00000000000000000E+00   0.00000000000000000E+00   0.00000000000000000E+00   0.00000000000000000E+00   0.00000000000000000E+00
             0.00000000000000000E+00   0.00000000000000000E+00   0.00000000000000000E+00   0.00000000000000000E+00   0.00000000000000000E+00
             0.00000000000000000E+00   0.00000000000000000E+00   0.00000000000000000E+00   0.00000000000000000E+00   0.00000000000000000E+00
             0.00000000000000000E+00   0.00000000000000000E+00   0.00000000000000000E+00   0.00000000000000000E+00   0.00000000000000000E+00
             0.00000000000000000E+00   0.00000000000000000E+00   0.00000000000000000E+00   0.00000000000000000E+00   0.00000000000000000E+00
             0.00000000000000000E+00   0.00000000000000000E+00   0.00000000000000000E+00   0.00000000000000000E+00   0.00000000000000000E+00
             0.00000000000000000E+00   0.00000000000000000E+00   0.00000000000000000E+00   0.00000000000000000E+00   0.00000000000000000E+00
             0.00000000000000000E+00   0.00000000000000000E+00   0.00000000000000000E+00   0.00000000000000000E+00   0.00000000000000000E+00
             0.00000000000000000E+00   0.00000000000000000E+00   0.00000000000000000E+00   0.00000000000000000E+00   0.00000000000000000E+00
             0.00000000000000000E+00   0.00000000000000000E+00   0.00000000000000000E+00   0.00000000000000000E+00   0.00000000000000000E+00
             0.00000000000000000E+00   3.95000000000000000E+04   3.97500000000000000E+04   4.00000000000000000E+04   4.02500000000000000E+04
             4.05000000000000000E+04   4.07500000000000000E+04   4.10000000000000000E+04   4.12500000000000000E+04   4.15000000000000000E+04
             4.17500000000000000E+04   4.20000000000000000E+04   4.22500000000000000E+04   4.25000000000000000E+04   4.27500000000000000E+04
             4.30000000000000000E+04   4.32500000000000000E+04   4.35000000000000000E+04   4.37500000000000000E+04   4.40000000000000000E+04
             4.42500000000000000E+04   4.45000000000000000E+04   4.47500000000000000E+04   4.50000000000000000E+04   4.52500000000000000E+04
             4.55000000000000000E+04   4.57500000000000000E+04   4.60000000000000000E+04   4.62500000000000000E+04   4.65000000000000000E+04
             4.67500000000000000E+04   4.70000000000000000E+04   4.72500000000000000E+04   4.75000000000000000E+04   4.77500000000000000E+04
             4.80000000000000000E+04   4.82500000000000000E+04   4.85000000000000000E+04   4.87500000000000000E+04   4.90000000000000000E+04
             4.92500000000000000E+04   4.95000000000000000E+04   4.97500000000000000E+04   5.00000000000000000E+04   5.02500000000000000E+04
             5.05000000000000000E+04   5.07500000000000000E+04   0.00000000000000000E+00   0.00000000000000000E+00   0.00000000000000000E+00
             0.00000000000000000E+00   0.00000000000000000E+00   0.00000000000000000E+00   0.00000000000000000E+00   0.00000000000000000E+00
             0.00000000000000000E+00   0.00000000000000000E+00   0.00000000000000000E+00   0.00000000000000000E+00   0.00000000000000000E+00
             0.00000000000000000E+00   0.00000000000000000E+00   0.00000000000000000E+00   0.00000000000000000E+00   0.00000000000000000E+00
             0.00000000000000000E+00   0.00000000000000000E+00   0.00000000000000000E+00   0.00000000000000000E+00   0.00000000000000000E+00
             0.00000000000000000E+00   0.00000000000000000E+00   0.00000000000000000E+00   0.00000000000000000E+00   0.00000000000000000E+00
             0.00000000000000000E+00   0.00000000000000000E+00   0.00000000000000000E+00   0.00000000000000000E+00   0.00000000000000000E+00
             0.00000000000000000E+00   0.00000000000000000E+00   0.00000000000000000E+00   0.00000000000000000E+00   0.00000000000000000E+00
 ETA=    7   0.00000000000000000E+00   0.00000000000000000E+00   0.00000000000000000E+00   0.00000000000000000E+00   0.00000000000000000E+00
             0.00000000000000000E+00   0.00000000000000000E+00   0.00000000000000000E+00   0.00000000000000000E+00   0.00000000000000000E+00
             0.00000000000000000E+00   0.00000000000000000E+00   0.00000000000000000E+00   0.00000000000000000E+00   0.00000000000000000E+00
             0.00000000000000000E+00   0.00000000000000000E+00   0.00000000000000000E+00   0.00000000000000000E+00   0.00000000000000000E+00
             0.00000000000000000E+00   0.00000000000000000E+00   0.00000000000000000E+00   0.00000000000000000E+00   0.00000000000000000E+00
             0.00000000000000000E+00   0.00000000000000000E+00   0.00000000000000000E+00   0.00000000000000000E+00   0.00000000000000000E+00
             0.00000000000000000E+00   0.00000000000000000E+00   0.00000000000000000E+00   0.00000000000000000E+00   0.00000000000000000E+00
             0.00000000000000000E+00   0.00000000000000000E+00   0.00000000000000000E+00   0.00000000000000000E+00   0.00000000000000000E+00
             0.00000000000000000E+00   0.00000000000000000E+00   0.00000000000000000E+00   0.00000000000000000E+00   0.00000000000000000E+00
             0.00000000000000000E+00   0.00000000000000000E+00   0.00000000000000000E+00   0.00000000000000000E+00   0.00000000000000000E+00
             0.00000000000000000E+00   0.00000000000000000E+00   0.00000000000000000E+00   0.00000000000000000E+00   0.00000000000000000E+00
             0.00000000000000000E+00   0.00000000000000000E+00   0.00000000000000000E+00   0.00000000000000000E+00   0.00000000000000000E+00
             0.00000000000000000E+00   0.00000000000000000E+00   0.00000000000000000E+00   0.00000000000000000E+00   0.00000000000000000E+00
             0.00000000000000000E+00   0.00000000000000000E+00   0.00000000000000000E+00   0.00000000000000000E+00   0.00000000000000000E+00
             0.00000000000000000E+00   0.00000000000000000E+00   0.00000000000000000E+00   0.00000000000000000E+00   0.00000000000000000E+00
             0.00000000000000000E+00   0.00000000000000000E+00   0.00000000000000000E+00   0.00000000000000000E+00   0.00000000000000000E+00
             0.00000000000000000E+00   3.95000000000000000E+04   3.97500000000000000E+04   4.00000000000000000E+04   4.02500000000000000E+04
             4.05000000000000000E+04   4.07500000000000000E+04   4.10000000000000000E+04   4.12500000000000000E+04   4.15000000000000000E+04
             4.17500000000000000E+04   4.20000000000000000E+04   4.22500000000000000E+04   4.25000000000000000E+04   4.27500000000000000E+04
             4.30000000000000000E+04   4.32500000000000000E+04   4.35000000000000000E+04   4.37500000000000000E+04   4.40000000000000000E+04
             4.42500000000000000E+04   4.45000000000000000E+04   4.47500000000000000E+04   4.50000000000000000E+04   4.52500000000000000E+04
             4.55000000000000000E+04   4.57500000000000000E+04   4.60000000000000000E+04   4.62500000000000000E+04   4.65000000000000000E+04
             4.67500000000000000E+04   4.70000000000000000E+04   4.72500000000000000E+04   4.75000000000000000E+04   4.77500000000000000E+04
             4.80000000000000000E+04   4.82500000000000000E+04   4.85000000000000000E+04   4.87500000000000000E+04   4.90000000000000000E+04
             4.92500000000000000E+04   4.95000000000000000E+04   4.97500000000000000E+04   5.00000000000000000E+04   5.02500000000000000E+04
             5.05000000000000000E+04   5.07500000000000000E+04   0.00000000000000000E+00   0.00000000000000000E+00   0.00000000000000000E+00
             0.00000000000000000E+00   0.00000000000000000E+00   0.00000000000000000E+00   0.00000000000000000E+00   0.00000000000000000E+00
             0.00000000000000000E+00   0.00000000000000000E+00   0.00000000000000000E+00   0.00000000000000000E+00   0.00000000000000000E+00
             0.00000000000000000E+00   0.00000000000000000E+00   0.00000000000000000E+00   0.00000000000000000E+00   0.00000000000000000E+00
             0.00000000000000000E+00   0.00000000000000000E+00   0.00000000000000000E+00   0.00000000000000000E+00   0.00000000000000000E+00
             0.00000000000000000E+00   0.00000000000000000E+00   0.00000000000000000E+00   0.00000000000000000E+00   0.00000000000000000E+00
             0.00000000000000000E+00   0.00000000000000000E+00   0.00000000000000000E+00   0.00000000000000000E+00   0.00000000000000000E+00
             0.00000000000000000E+00   0.00000000000000000E+00   0.00000000000000000E+00   0.00000000000000000E+00   0.00000000000000000E+00
 ETA=    8   0.00000000000000000E+00   0.00000000000000000E+00   0.00000000000000000E+00   0.00000000000000000E+00   0.00000000000000000E+00
             0.00000000000000000E+00   0.00000000000000000E+00   0.00000000000000000E+00   0.00000000000000000E+00   0.00000000000000000E+00
             0.00000000000000000E+00   0.00000000000000000E+00   0.00000000000000000E+00   0.00000000000000000E+00   0.00000000000000000E+00
             0.00000000000000000E+00   0.00000000000000000E+00   0.00000000000000000E+00   0.00000000000000000E+00   0.00000000000000000E+00
             0.00000000000000000E+00   0.00000000000000000E+00   0.00000000000000000E+00   0.00000000000000000E+00   0.00000000000000000E+00
             0.00000000000000000E+00   0.00000000000000000E+00   0.00000000000000000E+00   0.00000000000000000E+00   0.00000000000000000E+00
             0.00000000000000000E+00   0.00000000000000000E+00   0.00000000000000000E+00   0.00000000000000000E+00   0.00000000000000000E+00
             0.00000000000000000E+00   0.00000000000000000E+00   0.00000000000000000E+00   0.00000000000000000E+00   0.00000000000000000E+00
             0.00000000000000000E+00   0.00000000000000000E+00   0.00000000000000000E+00   0.00000000000000000E+00   0.00000000000000000E+00
             0.00000000000000000E+00   0.00000000000000000E+00   0.00000000000000000E+00   0.00000000000000000E+00   0.00000000000000000E+00
             0.00000000000000000E+00   0.00000000000000000E+00   0.00000000000000000E+00   0.00000000000000000E+00   0.00000000000000000E+00
             0.00000000000000000E+00   0.00000000000000000E+00   0.00000000000000000E+00   0.00000000000000000E+00   0.00000000000000000E+00
             0.00000000000000000E+00   0.00000000000000000E+00   0.00000000000000000E+00   0.00000000000000000E+00   0.00000000000000000E+00
             0.00000000000000000E+00   0.00000000000000000E+00   0.00000000000000000E+00   0.00000000000000000E+00   0.00000000000000000E+00
             0.00000000000000000E+00   0.00000000000000000E+00   0.00000000000000000E+00   0.00000000000000000E+00   0.00000000000000000E+00
             0.00000000000000000E+00   0.00000000000000000E+00   0.00000000000000000E+00   0.00000000000000000E+00   0.00000000000000000E+00
             0.00000000000000000E+00   3.95000000000000000E+04   3.97500000000000000E+04   4.00000000000000000E+04   4.02500000000000000E+04
             4.05000000000000000E+04   4.07500000000000000E+04   4.10000000000000000E+04   4.12500000000000000E+04   4.15000000000000000E+04
             4.17500000000000000E+04   4.20000000000000000E+04   4.22500000000000000E+04   4.25000000000000000E+04   4.27500000000000000E+04
             4.30000000000000000E+04   4.32500000000000000E+04   4.35000000000000000E+04   4.37500000000000000E+04   4.40000000000000000E+04
             4.42500000000000000E+04   4.45000000000000000E+04   4.47500000000000000E+04   4.50000000000000000E+04   4.52500000000000000E+04
             4.55000000000000000E+04   4.57500000000000000E+04   4.60000000000000000E+04   4.62500000000000000E+04   4.65000000000000000E+04
             4.67500000000000000E+04   4.70000000000000000E+04   4.72500000000000000E+04   4.75000000000000000E+04   4.77500000000000000E+04
             4.80000000000000000E+04   4.82500000000000000E+04   4.85000000000000000E+04   4.87500000000000000E+04   4.90000000000000000E+04
             4.92500000000000000E+04   4.95000000000000000E+04   4.97500000000000000E+04   5.00000000000000000E+04   5.02500000000000000E+04
             5.05000000000000000E+04   5.07500000000000000E+04   0.00000000000000000E+00   0.00000000000000000E+00   0.00000000000000000E+00
             0.00000000000000000E+00   0.00000000000000000E+00   0.00000000000000000E+00   0.00000000000000000E+00   0.00000000000000000E+00
             0.00000000000000000E+00   0.00000000000000000E+00   0.00000000000000000E+00   0.00000000000000000E+00   0.00000000000000000E+00
             0.00000000000000000E+00   0.00000000000000000E+00   0.00000000000000000E+00   0.00000000000000000E+00   0.00000000000000000E+00
             0.00000000000000000E+00   0.00000000000000000E+00   0.00000000000000000E+00   0.00000000000000000E+00   0.00000000000000000E+00
             0.00000000000000000E+00   0.00000000000000000E+00   0.00000000000000000E+00   0.00000000000000000E+00   0.00000000000000000E+00
             0.00000000000000000E+00   0.00000000000000000E+00   0.00000000000000000E+00   0.00000000000000000E+00   0.00000000000000000E+00
             0.00000000000000000E+00   0.00000000000000000E+00   0.00000000000000000E+00   0.00000000000000000E+00   0.00000000000000000E+00
 ETA=    9   0.00000000000000000E+00   0.00000000000000000E+00   0.00000000000000000E+00   0.00000000000000000E+00   0.00000000000000000E+00
             0.00000000000000000E+00   0.00000000000000000E+00   0.00000000000000000E+00   0.00000000000000000E+00   0.00000000000000000E+00
             0.00000000000000000E+00   0.00000000000000000E+00   0.00000000000000000E+00   0.00000000000000000E+00   0.00000000000000000E+00
             0.00000000000000000E+00   0.00000000000000000E+00   0.00000000000000000E+00   0.00000000000000000E+00   0.00000000000000000E+00
             0.00000000000000000E+00   0.00000000000000000E+00   0.00000000000000000E+00   0.00000000000000000E+00   0.00000000000000000E+00
             0.00000000000000000E+00   0.00000000000000000E+00   0.00000000000000000E+00   0.00000000000000000E+00   0.00000000000000000E+00
             0.00000000000000000E+00   0.00000000000000000E+00   0.00000000000000000E+00   0.00000000000000000E+00   0.00000000000000000E+00
             0.00000000000000000E+00   0.00000000000000000E+00   0.00000000000000000E+00   0.00000000000000000E+00   0.00000000000000000E+00
             0.00000000000000000E+00   0.00000000000000000E+00   0.00000000000000000E+00   0.00000000000000000E+00   0.00000000000000000E+00
             0.00000000000000000E+00   0.00000000000000000E+00   0.00000000000000000E+00   0.00000000000000000E+00   0.00000000000000000E+00
             0.00000000000000000E+00   0.00000000000000000E+00   0.00000000000000000E+00   0.00000000000000000E+00   0.00000000000000000E+00
             0.00000000000000000E+00   0.00000000000000000E+00   0.00000000000000000E+00   0.00000000000000000E+00   0.00000000000000000E+00
             0.00000000000000000E+00   0.00000000000000000E+00   0.00000000000000000E+00   0.00000000000000000E+00   0.00000000000000000E+00
             0.00000000000000000E+00   0.00000000000000000E+00   0.00000000000000000E+00   0.00000000000000000E+00   0.00000000000000000E+00
             0.00000000000000000E+00   0.00000000000000000E+00   0.00000000000000000E+00   0.00000000000000000E+00   0.00000000000000000E+00
             0.00000000000000000E+00   0.00000000000000000E+00   0.00000000000000000E+00   0.00000000000000000E+00   0.00000000000000000E+00
             0.00000000000000000E+00   3.95000000000000000E+04   3.97500000000000000E+04   4.00000000000000000E+04   4.02500000000000000E+04
             4.05000000000000000E+04   4.07500000000000000E+04   4.10000000000000000E+04   4.12500000000000000E+04   4.15000000000000000E+04
             4.17500000000000000E+04   4.20000000000000000E+04   4.22500000000000000E+04   4.25000000000000000E+04   4.27500000000000000E+04
             4.30000000000000000E+04   4.32500000000000000E+04   4.35000000000000000E+04   4.37500000000000000E+04   4.40000000000000000E+04
             4.42500000000000000E+04   4.45000000000000000E+04   4.47500000000000000E+04   4.50000000000000000E+04   4.52500000000000000E+04
             4.55000000000000000E+04   4.57500000000000000E+04   4.60000000000000000E+04   4.62500000000000000E+04   4.65000000000000000E+04
             4.67500000000000000E+04   4.70000000000000000E+04   4.72500000000000000E+04   4.75000000000000000E+04   4.77500000000000000E+04
             4.80000000000000000E+04   4.82500000000000000E+04   4.85000000000000000E+04   4.87500000000000000E+04   4.90000000000000000E+04
             4.92500000000000000E+04   4.95000000000000000E+04   4.97500000000000000E+04   5.00000000000000000E+04   5.02500000000000000E+04
             5.05000000000000000E+04   5.07500000000000000E+04   0.00000000000000000E+00   0.00000000000000000E+00   0.00000000000000000E+00
             0.00000000000000000E+00   0.00000000000000000E+00   0.00000000000000000E+00   0.00000000000000000E+00   0.00000000000000000E+00
             0.00000000000000000E+00   0.00000000000000000E+00   0.00000000000000000E+00   0.00000000000000000E+00   0.00000000000000000E+00
             0.00000000000000000E+00   0.00000000000000000E+00   0.00000000000000000E+00   0.00000000000000000E+00   0.00000000000000000E+00
             0.00000000000000000E+00   0.00000000000000000E+00   0.00000000000000000E+00   0.00000000000000000E+00   0.00000000000000000E+00
             0.00000000000000000E+00   0.00000000000000000E+00   0.00000000000000000E+00   0.00000000000000000E+00   0.00000000000000000E+00
             0.00000000000000000E+00   0.00000000000000000E+00   0.00000000000000000E+00   0.00000000000000000E+00   0.00000000000000000E+00
             0.00000000000000000E+00   0.00000000000000000E+00   0.00000000000000000E+00   0.00000000000000000E+00   0.00000000000000000E+00
 ETA=   10   0.00000000000000000E+00   0.00000000000000000E+00   0.00000000000000000E+00   0.00000000000000000E+00   0.00000000000000000E+00
             0.00000000000000000E+00   0.00000000000000000E+00   0.00000000000000000E+00   0.00000000000000000E+00   0.00000000000000000E+00
             0.00000000000000000E+00   0.00000000000000000E+00   0.00000000000000000E+00   0.00000000000000000E+00   0.00000000000000000E+00
             0.00000000000000000E+00   0.00000000000000000E+00   0.00000000000000000E+00   0.00000000000000000E+00   0.00000000000000000E+00
             0.00000000000000000E+00   0.00000000000000000E+00   0.00000000000000000E+00   0.00000000000000000E+00   0.00000000000000000E+00
             0.00000000000000000E+00   0.00000000000000000E+00   0.00000000000000000E+00   0.00000000000000000E+00   0.00000000000000000E+00
             0.00000000000000000E+00   0.00000000000000000E+00   0.00000000000000000E+00   0.00000000000000000E+00   0.00000000000000000E+00
             0.00000000000000000E+00   0.00000000000000000E+00   0.00000000000000000E+00   0.00000000000000000E+00   0.00000000000000000E+00
             0.00000000000000000E+00   0.00000000000000000E+00   0.00000000000000000E+00   0.00000000000000000E+00   0.00000000000000000E+00
             0.00000000000000000E+00   0.00000000000000000E+00   0.00000000000000000E+00   0.00000000000000000E+00   0.00000000000000000E+00
             0.00000000000000000E+00   0.00000000000000000E+00   0.00000000000000000E+00   0.00000000000000000E+00   0.00000000000000000E+00
             0.00000000000000000E+00   0.00000000000000000E+00   0.00000000000000000E+00   0.00000000000000000E+00   0.00000000000000000E+00
             0.00000000000000000E+00   0.00000000000000000E+00   0.00000000000000000E+00   0.00000000000000000E+00   0.00000000000000000E+00
             0.00000000000000000E+00   0.00000000000000000E+00   0.00000000000000000E+00   0.00000000000000000E+00   0.00000000000000000E+00
             0.00000000000000000E+00   0.00000000000000000E+00   0.00000000000000000E+00   0.00000000000000000E+00   0.00000000000000000E+00
             0.00000000000000000E+00   0.00000000000000000E+00   0.00000000000000000E+00   0.00000000000000000E+00   0.00000000000000000E+00
             0.00000000000000000E+00   3.95000000000000000E+04   3.97500000000000000E+04   4.00000000000000000E+04   4.02500000000000000E+04
             4.05000000000000000E+04   4.07500000000000000E+04   4.10000000000000000E+04   4.12500000000000000E+04   4.15000000000000000E+04
             4.17500000000000000E+04   4.20000000000000000E+04   4.22500000000000000E+04   4.25000000000000000E+04   4.27500000000000000E+04
             4.30000000000000000E+04   4.32500000000000000E+04   4.35000000000000000E+04   4.37500000000000000E+04   4.40000000000000000E+04
             4.42500000000000000E+04   4.45000000000000000E+04   4.47500000000000000E+04   4.50000000000000000E+04   4.52500000000000000E+04
             4.55000000000000000E+04   4.57500000000000000E+04   4.60000000000000000E+04   4.62500000000000000E+04   4.65000000000000000E+04
             4.67500000000000000E+04   4.70000000000000000E+04   4.72500000000000000E+04   4.75000000000000000E+04   4.77500000000000000E+04
             4.80000000000000000E+04   4.82500000000000000E+04   4.85000000000000000E+04   4.87500000000000000E+04   4.90000000000000000E+04
             4.92500000000000000E+04   4.95000000000000000E+04   4.97500000000000000E+04   5.00000000000000000E+04   5.02500000000000000E+04
             5.05000000000000000E+04   5.07500000000000000E+04   0.00000000000000000E+00   0.00000000000000000E+00   0.00000000000000000E+00
             0.00000000000000000E+00   0.00000000000000000E+00   0.00000000000000000E+00   0.00000000000000000E+00   0.00000000000000000E+00
             0.00000000000000000E+00   0.00000000000000000E+00   0.00000000000000000E+00   0.00000000000000000E+00   0.00000000000000000E+00
             0.00000000000000000E+00   0.00000000000000000E+00   0.00000000000000000E+00   0.00000000000000000E+00   0.00000000000000000E+00
             0.00000000000000000E+00   0.00000000000000000E+00   0.00000000000000000E+00   0.00000000000000000E+00   0.00000000000000000E+00
             0.00000000000000000E+00   0.00000000000000000E+00   0.00000000000000000E+00   0.00000000000000000E+00   0.00000000000000000E+00
             0.00000000000000000E+00   0.00000000000000000E+00   0.00000000000000000E+00   0.00000000000000000E+00   0.00000000000000000E+00
             0.00000000000000000E+00   0.00000000000000000E+00   0.00000000000000000E+00   0.00000000000000000E+00   0.00000000000000000E+00
 ETA=   11   0.00000000000000000E+00   0.00000000000000000E+00   0.00000000000000000E+00   0.00000000000000000E+00   0.00000000000000000E+00
             0.00000000000000000E+00   0.00000000000000000E+00   0.00000000000000000E+00   0.00000000000000000E+00   0.00000000000000000E+00
             0.00000000000000000E+00   0.00000000000000000E+00   0.00000000000000000E+00   0.00000000000000000E+00   0.00000000000000000E+00
             0.00000000000000000E+00   0.00000000000000000E+00   0.00000000000000000E+00   0.00000000000000000E+00   0.00000000000000000E+00
             0.00000000000000000E+00   0.00000000000000000E+00   0.00000000000000000E+00   0.00000000000000000E+00   0.00000000000000000E+00
             0.00000000000000000E+00   0.00000000000000000E+00   0.00000000000000000E+00   0.00000000000000000E+00   0.00000000000000000E+00
             0.00000000000000000E+00   0.00000000000000000E+00   0.00000000000000000E+00   0.00000000000000000E+00   0.00000000000000000E+00
             0.00000000000000000E+00   0.00000000000000000E+00   0.00000000000000000E+00   0.00000000000000000E+00   0.00000000000000000E+00
             0.00000000000000000E+00   0.00000000000000000E+00   0.00000000000000000E+00   0.00000000000000000E+00   0.00000000000000000E+00
             0.00000000000000000E+00   0.00000000000000000E+00   0.00000000000000000E+00   0.00000000000000000E+00   0.00000000000000000E+00
             0.00000000000000000E+00   0.00000000000000000E+00   0.00000000000000000E+00   0.00000000000000000E+00   0.00000000000000000E+00
             0.00000000000000000E+00   0.00000000000000000E+00   0.00000000000000000E+00   0.00000000000000000E+00   0.00000000000000000E+00
             0.00000000000000000E+00   0.00000000000000000E+00   0.00000000000000000E+00   0.00000000000000000E+00   0.00000000000000000E+00
             0.00000000000000000E+00   0.00000000000000000E+00   0.00000000000000000E+00   0.00000000000000000E+00   0.00000000000000000E+00
             0.00000000000000000E+00   0.00000000000000000E+00   0.00000000000000000E+00   0.00000000000000000E+00   0.00000000000000000E+00
             0.00000000000000000E+00   0.00000000000000000E+00   0.00000000000000000E+00   0.00000000000000000E+00   0.00000000000000000E+00
             0.00000000000000000E+00   0.00000000000000000E+00   3.97500000000000000E+04   4.00000000000000000E+04   4.02500000000000000E+04
             4.05000000000000000E+04   4.07500000000000000E+04   4.10000000000000000E+04   4.12500000000000000E+04   4.15000000000000000E+04
             4.17500000000000000E+04   4.20000000000000000E+04   4.22500000000000000E+04   4.25000000000000000E+04   4.27500000000000000E+04
             4.30000000000000000E+04   4.32500000000000000E+04   4.35000000000000000E+04   4.37500000000000000E+04   4.40000000000000000E+04
             4.42500000000000000E+04   4.45000000000000000E+04   4.47500000000000000E+04   4.50000000000000000E+04   4.52500000000000000E+04
             4.55000000000000000E+04   4.57500000000000000E+04   4.60000000000000000E+04   4.62500000000000000E+04   4.65000000000000000E+04
             4.67500000000000000E+04   4.70000000000000000E+04   4.72500000000000000E+04   4.75000000000000000E+04   4.77500000000000000E+04
             4.80000000000000000E+04   4.82500000000000000E+04   4.85000000000000000E+04   4.87500000000000000E+04   4.90000000000000000E+04
             4.92500000000000000E+04   4.95000000000000000E+04   4.97500000000000000E+04   5.00000000000000000E+04   5.02500000000000000E+04
             5.05000000000000000E+04   5.07500000000000000E+04   0.00000000000000000E+00   0.00000000000000000E+00   0.00000000000000000E+00
             0.00000000000000000E+00   0.00000000000000000E+00   0.00000000000000000E+00   0.00000000000000000E+00   0.00000000000000000E+00
             0.00000000000000000E+00   0.00000000000000000E+00   0.00000000000000000E+00   0.00000000000000000E+00   0.00000000000000000E+00
             0.00000000000000000E+00   0.00000000000000000E+00   0.00000000000000000E+00   0.00000000000000000E+00   0.00000000000000000E+00
             0.00000000000000000E+00   0.00000000000000000E+00   0.00000000000000000E+00   0.00000000000000000E+00   0.00000000000000000E+00
             0.00000000000000000E+00   0.00000000000000000E+00   0.00000000000000000E+00   0.00000000000000000E+00   0.00000000000000000E+00
             0.00000000000000000E+00   0.00000000000000000E+00   0.00000000000000000E+00   0.00000000000000000E+00   0.00000000000000000E+00
             0.00000000000000000E+00   0.00000000000000000E+00   0.00000000000000000E+00   0.00000000000000000E+00   0.00000000000000000E+00
 ETA=   12   0.00000000000000000E+00   0.00000000000000000E+00   0.00000000000000000E+00   0.00000000000000000E+00   0.00000000000000000E+00
             0.00000000000000000E+00   0.00000000000000000E+00   0.00000000000000000E+00   0.00000000000000000E+00   0.00000000000000000E+00
             0.00000000000000000E+00   0.00000000000000000E+00   0.00000000000000000E+00   0.00000000000000000E+00   0.00000000000000000E+00
             0.00000000000000000E+00   0.00000000000000000E+00   0.00000000000000000E+00   0.00000000000000000E+00   0.00000000000000000E+00
             0.00000000000000000E+00   0.00000000000000000E+00   0.00000000000000000E+00   0.00000000000000000E+00   0.00000000000000000E+00
             0.00000000000000000E+00   0.00000000000000000E+00   0.00000000000000000E+00   0.00000000000000000E+00   0.00000000000000000E+00
             0.00000000000000000E+00   0.00000000000000000E+00   0.00000000000000000E+00   0.00000000000000000E+00   0.00000000000000000E+00
             0.00000000000000000E+00   0.00000000000000000E+00   0.00000000000000000E+00   0.00000000000000000E+00   0.00000000000000000E+00
             0.00000000000000000E+00   0.00000000000000000E+00   0.00000000000000000E+00   0.00000000000000000E+00   0.00000000000000000E+00
             0.00000000000000000E+00   0.00000000000000000E+00   0.00000000000000000E+00   0.00000000000000000E+00   0.00000000000000000E+00
             0.00000000000000000E+00   0.00000000000000000E+00   0.00000000000000000E+00   0.00000000000000000E+00   0.00000000000000000E+00
             0.00000000000000000E+00   0.00000000000000000E+00   0.00000000000000000E+00   0.00000000000000000E+00   0.00000000000000000E+00
             0.00000000000000000E+00   0.00000000000000000E+00   0.00000000000000000E+00   0.00000000000000000E+00   0.00000000000000000E+00
             0.00000000000000000E+00   0.00000000000000000E+00   0.00000000000000000E+00   0.00000000000000000E+00   0.00000000000000000E+00
             0.00000000000000000E+00   0.00000000000000000E+00   0.00000000000000000E+00   0.00000000000000000E+00   0.00000000000000000E+00
             0.00000000000000000E+00   0.00000000000000000E+00   0.00000000000000000E+00   0.00000000000000000E+00   0.00000000000000000E+00
             0.00000000000000000E+00   0.00000000000000000E+00   3.97500000000000000E+04   4.00000000000000000E+04   4.02500000000000000E+04
             4.05000000000000000E+04   4.07500000000000000E+04   4.10000000000000000E+04   4.12500000000000000E+04   4.15000000000000000E+04
             4.17500000000000000E+04   4.20000000000000000E+04   4.22500000000000000E+04   4.25000000000000000E+04   4.27500000000000000E+04
             4.30000000000000000E+04   4.32500000000000000E+04   4.35000000000000000E+04   4.37500000000000000E+04   4.40000000000000000E+04
             4.42500000000000000E+04   4.45000000000000000E+04   4.47500000000000000E+04   4.50000000000000000E+04   4.52500000000000000E+04
             4.55000000000000000E+04   4.57500000000000000E+04   4.60000000000000000E+04   4.62500000000000000E+04   4.65000000000000000E+04
             4.67500000000000000E+04   4.70000000000000000E+04   4.72500000000000000E+04   4.75000000000000000E+04   4.77500000000000000E+04
             4.80000000000000000E+04   4.82500000000000000E+04   4.85000000000000000E+04   4.87500000000000000E+04   4.90000000000000000E+04
             4.92500000000000000E+04   4.95000000000000000E+04   4.97500000000000000E+04   5.00000000000000000E+04   5.02500000000000000E+04
             5.05000000000000000E+04   5.07500000000000000E+04   0.00000000000000000E+00   0.00000000000000000E+00   0.00000000000000000E+00
             0.00000000000000000E+00   0.00000000000000000E+00   0.00000000000000000E+00   0.00000000000000000E+00   0.00000000000000000E+00
             0.00000000000000000E+00   0.00000000000000000E+00   0.00000000000000000E+00   0.00000000000000000E+00   0.00000000000000000E+00
             0.00000000000000000E+00   0.00000000000000000E+00   0.00000000000000000E+00   0.00000000000000000E+00   0.00000000000000000E+00
             0.00000000000000000E+00   0.00000000000000000E+00   0.00000000000000000E+00   0.00000000000000000E+00   0.00000000000000000E+00
             0.00000000000000000E+00   0.00000000000000000E+00   0.00000000000000000E+00   0.00000000000000000E+00   0.00000000000000000E+00
             0.00000000000000000E+00   0.00000000000000000E+00   0.00000000000000000E+00   0.00000000000000000E+00   0.00000000000000000E+00
             0.00000000000000000E+00   0.00000000000000000E+00   0.00000000000000000E+00   0.00000000000000000E+00   0.00000000000000000E+00
 ETA=   13   0.00000000000000000E+00   0.00000000000000000E+00   0.00000000000000000E+00   0.00000000000000000E+00   0.00000000000000000E+00
             0.00000000000000000E+00   0.00000000000000000E+00   0.00000000000000000E+00   0.00000000000000000E+00   0.00000000000000000E+00
             0.00000000000000000E+00   0.00000000000000000E+00   0.00000000000000000E+00   0.00000000000000000E+00   0.00000000000000000E+00
             0.00000000000000000E+00   0.00000000000000000E+00   0.00000000000000000E+00   0.00000000000000000E+00   0.00000000000000000E+00
             0.00000000000000000E+00   0.00000000000000000E+00   0.00000000000000000E+00   0.00000000000000000E+00   0.00000000000000000E+00
             0.00000000000000000E+00   0.00000000000000000E+00   0.00000000000000000E+00   0.00000000000000000E+00   0.00000000000000000E+00
             0.00000000000000000E+00   0.00000000000000000E+00   0.00000000000000000E+00   0.00000000000000000E+00   0.00000000000000000E+00
             0.00000000000000000E+00   0.00000000000000000E+00   0.00000000000000000E+00   0.00000000000000000E+00   0.00000000000000000E+00
             0.00000000000000000E+00   0.00000000000000000E+00   0.00000000000000000E+00   0.00000000000000000E+00   0.00000000000000000E+00
             0.00000000000000000E+00   0.00000000000000000E+00   0.00000000000000000E+00   0.00000000000000000E+00   0.00000000000000000E+00
             0.00000000000000000E+00   0.00000000000000000E+00   0.00000000000000000E+00   0.00000000000000000E+00   0.00000000000000000E+00
             0.00000000000000000E+00   0.00000000000000000E+00   0.00000000000000000E+00   0.00000000000000000E+00   0.00000000000000000E+00
             0.00000000000000000E+00   0.00000000000000000E+00   0.00000000000000000E+00   0.00000000000000000E+00   0.00000000000000000E+00
             0.00000000000000000E+00   0.00000000000000000E+00   0.00000000000000000E+00   0.00000000000000000E+00   0.00000000000000000E+00
             0.00000000000000000E+00   0.00000000000000000E+00   0.00000000000000000E+00   0.00000000000000000E+00   0.00000000000000000E+00
             0.00000000000000000E+00   0.00000000000000000E+00   0.00000000000000000E+00   0.00000000000000000E+00   0.00000000000000000E+00
             0.00000000000000000E+00   0.00000000000000000E+00   3.97500000000000000E+04   4.00000000000000000E+04   4.02500000000000000E+04
             4.05000000000000000E+04   4.07500000000000000E+04   4.10000000000000000E+04   4.12500000000000000E+04   4.15000000000000000E+04
             4.17500000000000000E+04   4.20000000000000000E+04   4.22500000000000000E+04   4.25000000000000000E+04   4.27500000000000000E+04
             4.30000000000000000E+04   4.32500000000000000E+04   4.35000000000000000E+04   4.37500000000000000E+04   4.40000000000000000E+04
             4.42500000000000000E+04   4.45000000000000000E+04   4.47500000000000000E+04   4.50000000000000000E+04   4.52500000000000000E+04
             4.55000000000000000E+04   4.57500000000000000E+04   4.60000000000000000E+04   4.62500000000000000E+04   4.65000000000000000E+04
             4.67500000000000000E+04   4.70000000000000000E+04   4.72500000000000000E+04   4.75000000000000000E+04   4.77500000000000000E+04
             4.80000000000000000E+04   4.82500000000000000E+04   4.85000000000000000E+04   4.87500000000000000E+04   4.90000000000000000E+04
             4.92500000000000000E+04   4.95000000000000000E+04   4.97500000000000000E+04   5.00000000000000000E+04   5.02500000000000000E+04
             5.05000000000000000E+04   5.07500000000000000E+04   0.00000000000000000E+00   0.00000000000000000E+00   0.00000000000000000E+00
             0.00000000000000000E+00   0.00000000000000000E+00   0.00000000000000000E+00   0.00000000000000000E+00   0.00000000000000000E+00
             0.00000000000000000E+00   0.00000000000000000E+00   0.00000000000000000E+00   0.00000000000000000E+00   0.00000000000000000E+00
             0.00000000000000000E+00   0.00000000000000000E+00   0.00000000000000000E+00   0.00000000000000000E+00   0.00000000000000000E+00
             0.00000000000000000E+00   0.00000000000000000E+00   0.00000000000000000E+00   0.00000000000000000E+00   0.00000000000000000E+00
             0.00000000000000000E+00   0.00000000000000000E+00   0.00000000000000000E+00   0.00000000000000000E+00   0.00000000000000000E+00
             0.00000000000000000E+00   0.00000000000000000E+00   0.00000000000000000E+00   0.00000000000000000E+00   0.00000000000000000E+00
             0.00000000000000000E+00   0.00000000000000000E+00   0.00000000000000000E+00   0.00000000000000000E+00   0.00000000000000000E+00
 ETA=   14   0.00000000000000000E+00   0.00000000000000000E+00   0.00000000000000000E+00   0.00000000000000000E+00   0.00000000000000000E+00
             0.00000000000000000E+00   0.00000000000000000E+00   0.00000000000000000E+00   0.00000000000000000E+00   0.00000000000000000E+00
             0.00000000000000000E+00   0.00000000000000000E+00   0.00000000000000000E+00   0.00000000000000000E+00   0.00000000000000000E+00
             0.00000000000000000E+00   0.00000000000000000E+00   0.00000000000000000E+00   0.00000000000000000E+00   0.00000000000000000E+00
             0.00000000000000000E+00   0.00000000000000000E+00   0.00000000000000000E+00   0.00000000000000000E+00   0.00000000000000000E+00
             0.00000000000000000E+00   0.00000000000000000E+00   0.00000000000000000E+00   0.00000000000000000E+00   0.00000000000000000E+00
             0.00000000000000000E+00   0.00000000000000000E+00   0.00000000000000000E+00   0.00000000000000000E+00   0.00000000000000000E+00
             0.00000000000000000E+00   0.00000000000000000E+00   0.00000000000000000E+00   0.00000000000000000E+00   0.00000000000000000E+00
             0.00000000000000000E+00   0.00000000000000000E+00   0.00000000000000000E+00   0.00000000000000000E+00   0.00000000000000000E+00
             0.00000000000000000E+00   0.00000000000000000E+00   0.00000000000000000E+00   0.00000000000000000E+00   0.00000000000000000E+00
             0.00000000000000000E+00   0.00000000000000000E+00   0.00000000000000000E+00   0.00000000000000000E+00   0.00000000000000000E+00
             0.00000000000000000E+00   0.00000000000000000E+00   0.00000000000000000E+00   0.00000000000000000E+00   0.00000000000000000E+00
             0.00000000000000000E+00   0.00000000000000000E+00   0.00000000000000000E+00   0.00000000000000000E+00   0.00000000000000000E+00
             0.00000000000000000E+00   0.00000000000000000E+00   0.00000000000000000E+00   0.00000000000000000E+00   0.00000000000000000E+00
             0.00000000000000000E+00   0.00000000000000000E+00   0.00000000000000000E+00   0.00000000000000000E+00   0.00000000000000000E+00
             0.00000000000000000E+00   0.00000000000000000E+00   0.00000000000000000E+00   0.00000000000000000E+00   0.00000000000000000E+00
             0.00000000000000000E+00   0.00000000000000000E+00   3.97500000000000000E+04   4.00000000000000000E+04   4.02500000000000000E+04
             4.05000000000000000E+04   4.07500000000000000E+04   4.10000000000000000E+04   4.12500000000000000E+04   4.15000000000000000E+04
             4.17500000000000000E+04   4.20000000000000000E+04   4.22500000000000000E+04   4.25000000000000000E+04   4.27500000000000000E+04
             4.30000000000000000E+04   4.32500000000000000E+04   4.35000000000000000E+04   4.37500000000000000E+04   4.40000000000000000E+04
             4.42500000000000000E+04   4.45000000000000000E+04   4.47500000000000000E+04   4.50000000000000000E+04   4.52500000000000000E+04
             4.55000000000000000E+04   4.57500000000000000E+04   4.60000000000000000E+04   4.62500000000000000E+04   4.65000000000000000E+04
             4.67500000000000000E+04   4.70000000000000000E+04   4.72500000000000000E+04   4.75000000000000000E+04   4.77500000000000000E+04
             4.80000000000000000E+04   4.82500000000000000E+04   4.85000000000000000E+04   4.87500000000000000E+04   4.90000000000000000E+04
             4.92500000000000000E+04   4.95000000000000000E+04   4.97500000000000000E+04   5.00000000000000000E+04   5.02500000000000000E+04
             5.05000000000000000E+04   5.07500000000000000E+04   0.00000000000000000E+00   0.00000000000000000E+00   0.00000000000000000E+00
             0.00000000000000000E+00   0.00000000000000000E+00   0.00000000000000000E+00   0.00000000000000000E+00   0.00000000000000000E+00
             0.00000000000000000E+00   0.00000000000000000E+00   0.00000000000000000E+00   0.00000000000000000E+00   0.00000000000000000E+00
             0.00000000000000000E+00   0.00000000000000000E+00   0.00000000000000000E+00   0.00000000000000000E+00   0.00000000000000000E+00
             0.00000000000000000E+00   0.00000000000000000E+00   0.00000000000000000E+00   0.00000000000000000E+00   0.00000000000000000E+00
             0.00000000000000000E+00   0.00000000000000000E+00   0.00000000000000000E+00   0.00000000000000000E+00   0.00000000000000000E+00
             0.00000000000000000E+00   0.00000000000000000E+00   0.00000000000000000E+00   0.00000000000000000E+00   0.00000000000000000E+00
             0.00000000000000000E+00   0.00000000000000000E+00   0.00000000000000000E+00   0.00000000000000000E+00   0.00000000000000000E+00
 ETA=   15   0.00000000000000000E+00   0.00000000000000000E+00   0.00000000000000000E+00   0.00000000000000000E+00   0.00000000000000000E+00
             0.00000000000000000E+00   0.00000000000000000E+00   0.00000000000000000E+00   0.00000000000000000E+00   0.00000000000000000E+00
             0.00000000000000000E+00   0.00000000000000000E+00   0.00000000000000000E+00   0.00000000000000000E+00   0.00000000000000000E+00
             0.00000000000000000E+00   0.00000000000000000E+00   0.00000000000000000E+00   0.00000000000000000E+00   0.00000000000000000E+00
             0.00000000000000000E+00   0.00000000000000000E+00   0.00000000000000000E+00   0.00000000000000000E+00   0.00000000000000000E+00
             0.00000000000000000E+00   0.00000000000000000E+00   0.00000000000000000E+00   0.00000000000000000E+00   0.00000000000000000E+00
             0.00000000000000000E+00   0.00000000000000000E+00   0.00000000000000000E+00   0.00000000000000000E+00   0.00000000000000000E+00
             0.00000000000000000E+00   0.00000000000000000E+00   0.00000000000000000E+00   0.00000000000000000E+00   0.00000000000000000E+00
             0.00000000000000000E+00   0.00000000000000000E+00   0.00000000000000000E+00   0.00000000000000000E+00   0.00000000000000000E+00
             0.00000000000000000E+00   0.00000000000000000E+00   0.00000000000000000E+00   0.00000000000000000E+00   0.00000000000000000E+00
             0.00000000000000000E+00   0.00000000000000000E+00   0.00000000000000000E+00   0.00000000000000000E+00   0.00000000000000000E+00
             0.00000000000000000E+00   0.00000000000000000E+00   0.00000000000000000E+00   0.00000000000000000E+00   0.00000000000000000E+00
             0.00000000000000000E+00   0.00000000000000000E+00   0.00000000000000000E+00   0.00000000000000000E+00   0.00000000000000000E+00
             0.00000000000000000E+00   0.00000000000000000E+00   0.00000000000000000E+00   0.00000000000000000E+00   0.00000000000000000E+00
             0.00000000000000000E+00   0.00000000000000000E+00   0.00000000000000000E+00   0.00000000000000000E+00   0.00000000000000000E+00
             0.00000000000000000E+00   0.00000000000000000E+00   0.00000000000000000E+00   0.00000000000000000E+00   0.00000000000000000E+00
             0.00000000000000000E+00   0.00000000000000000E+00   0.00000000000000000E+00   4.00000000000000000E+04   4.02500000000000000E+04
             4.05000000000000000E+04   4.07500000000000000E+04   4.10000000000000000E+04   4.12500000000000000E+04   4.15000000000000000E+04
             4.17500000000000000E+04   4.20000000000000000E+04   4.22500000000000000E+04   4.25000000000000000E+04   4.27500000000000000E+04
             4.30000000000000000E+04   4.32500000000000000E+04   4.35000000000000000E+04   4.37500000000000000E+04   4.40000000000000000E+04
             4.42500000000000000E+04   4.45000000000000000E+04   4.47500000000000000E+04   4.50000000000000000E+04   4.52500000000000000E+04
             4.55000000000000000E+04   4.57500000000000000E+04   4.60000000000000000E+04   4.62500000000000000E+04   4.65000000000000000E+04
             4.67500000000000000E+04   4.70000000000000000E+04   4.72500000000000000E+04   4.75000000000000000E+04   4.77500000000000000E+04
             4.80000000000000000E+04   4.82500000000000000E+04   4.85000000000000000E+04   4.87500000000000000E+04   4.90000000000000000E+04
             4.92500000000000000E+04   4.95000000000000000E+04   4.97500000000000000E+04   5.00000000000000000E+04   5.02500000000000000E+04
             5.05000000000000000E+04   0.00000000000000000E+00   0.00000000000000000E+00   0.00000000000000000E+00   0.00000000000000000E+00
             0.00000000000000000E+00   0.00000000000000000E+00   0.00000000000000000E+00   0.00000000000000000E+00   0.00000000000000000E+00
             0.00000000000000000E+00   0.00000000000000000E+00   0.00000000000000000E+00   0.00000000000000000E+00   0.00000000000000000E+00
             0.00000000000000000E+00   0.00000000000000000E+00   0.00000000000000000E+00   0.00000000000000000E+00   0.00000000000000000E+00
             0.00000000000000000E+00   0.00000000000000000E+00   0.00000000000000000E+00   0.00000000000000000E+00   0.00000000000000000E+00
             0.00000000000000000E+00   0.00000000000000000E+00   0.00000000000000000E+00   0.00000000000000000E+00   0.00000000000000000E+00
             0.00000000000000000E+00   0.00000000000000000E+00   0.00000000000000000E+00   0.00000000000000000E+00   0.00000000000000000E+00
             0.00000000000000000E+00   0.00000000000000000E+00   0.00000000000000000E+00   0.00000000000000000E+00   0.00000000000000000E+00
 ETA=   16   0.00000000000000000E+00   0.00000000000000000E+00   0.00000000000000000E+00   0.00000000000000000E+00   0.00000000000000000E+00
             0.00000000000000000E+00   0.00000000000000000E+00   0.00000000000000000E+00   0.00000000000000000E+00   0.00000000000000000E+00
             0.00000000000000000E+00   0.00000000000000000E+00   0.00000000000000000E+00   0.00000000000000000E+00   0.00000000000000000E+00
             0.00000000000000000E+00   0.00000000000000000E+00   0.00000000000000000E+00   0.00000000000000000E+00   0.00000000000000000E+00
             0.00000000000000000E+00   0.00000000000000000E+00   0.00000000000000000E+00   0.00000000000000000E+00   0.00000000000000000E+00
             0.00000000000000000E+00   0.00000000000000000E+00   0.00000000000000000E+00   0.00000000000000000E+00   0.00000000000000000E+00
             0.00000000000000000E+00   0.00000000000000000E+00   0.00000000000000000E+00   0.00000000000000000E+00   0.00000000000000000E+00
             0.00000000000000000E+00   0.00000000000000000E+00   0.00000000000000000E+00   0.00000000000000000E+00   0.00000000000000000E+00
             0.00000000000000000E+00   0.00000000000000000E+00   0.00000000000000000E+00   0.00000000000000000E+00   0.00000000000000000E+00
             0.00000000000000000E+00   0.00000000000000000E+00   0.00000000000000000E+00   0.00000000000000000E+00   0.00000000000000000E+00
             0.00000000000000000E+00   0.00000000000000000E+00   0.00000000000000000E+00   0.00000000000000000E+00   0.00000000000000000E+00
             0.00000000000000000E+00   0.00000000000000000E+00   0.00000000000000000E+00   0.00000000000000000E+00   0.00000000000000000E+00
             0.00000000000000000E+00   0.00000000000000000E+00   0.00000000000000000E+00   0.00000000000000000E+00   0.00000000000000000E+00
             0.00000000000000000E+00   0.00000000000000000E+00   0.00000000000000000E+00   0.00000000000000000E+00   0.00000000000000000E+00
             0.00000000000000000E+00   0.00000000000000000E+00   0.00000000000000000E+00   0.00000000000000000E+00   0.00000000000000000E+00
             0.00000000000000000E+00   0.00000000000000000E+00   0.00000000000000000E+00   0.00000000000000000E+00   0.00000000000000000E+00
             0.00000000000000000E+00   0.00000000000000000E+00   0.00000000000000000E+00   4.00000000000000000E+04   4.02500000000000000E+04
             4.05000000000000000E+04   4.07500000000000000E+04   4.10000000000000000E+04   4.12500000000000000E+04   4.15000000000000000E+04
             4.17500000000000000E+04   4.20000000000000000E+04   4.22500000000000000E+04   4.25000000000000000E+04   4.27500000000000000E+04
             4.30000000000000000E+04   4.32500000000000000E+04   4.35000000000000000E+04   4.37500000000000000E+04   4.40000000000000000E+04
             4.42500000000000000E+04   4.45000000000000000E+04   4.47500000000000000E+04   4.50000000000000000E+04   4.52500000000000000E+04
             4.55000000000000000E+04   4.57500000000000000E+04   4.60000000000000000E+04   4.62500000000000000E+04   4.65000000000000000E+04
             4.67500000000000000E+04   4.70000000000000000E+04   4.72500000000000000E+04   4.75000000000000000E+04   4.77500000000000000E+04
             4.80000000000000000E+04   4.82500000000000000E+04   4.85000000000000000E+04   4.87500000000000000E+04   4.90000000000000000E+04
             4.92500000000000000E+04   4.95000000000000000E+04   4.97500000000000000E+04   5.00000000000000000E+04   5.02500000000000000E+04
             5.05000000000000000E+04   0.00000000000000000E+00   0.00000000000000000E+00   0.00000000000000000E+00   0.00000000000000000E+00
             0.00000000000000000E+00   0.00000000000000000E+00   0.00000000000000000E+00   0.00000000000000000E+00   0.00000000000000000E+00
             0.00000000000000000E+00   0.00000000000000000E+00   0.00000000000000000E+00   0.00000000000000000E+00   0.00000000000000000E+00
             0.00000000000000000E+00   0.00000000000000000E+00   0.00000000000000000E+00   0.00000000000000000E+00   0.00000000000000000E+00
             0.00000000000000000E+00   0.00000000000000000E+00   0.00000000000000000E+00   0.00000000000000000E+00   0.00000000000000000E+00
             0.00000000000000000E+00   0.00000000000000000E+00   0.00000000000000000E+00   0.00000000000000000E+00   0.00000000000000000E+00
             0.00000000000000000E+00   0.00000000000000000E+00   0.00000000000000000E+00   0.00000000000000000E+00   0.00000000000000000E+00
             0.00000000000000000E+00   0.00000000000000000E+00   0.00000000000000000E+00   0.00000000000000000E+00   0.00000000000000000E+00
 ETA=   17   0.00000000000000000E+00   0.00000000000000000E+00   0.00000000000000000E+00   0.00000000000000000E+00   0.00000000000000000E+00
             0.00000000000000000E+00   0.00000000000000000E+00   0.00000000000000000E+00   0.00000000000000000E+00   0.00000000000000000E+00
             0.00000000000000000E+00   0.00000000000000000E+00   0.00000000000000000E+00   0.00000000000000000E+00   0.00000000000000000E+00
             0.00000000000000000E+00   0.00000000000000000E+00   0.00000000000000000E+00   0.00000000000000000E+00   0.00000000000000000E+00
             0.00000000000000000E+00   0.00000000000000000E+00   0.00000000000000000E+00   0.00000000000000000E+00   0.00000000000000000E+00
             0.00000000000000000E+00   0.00000000000000000E+00   0.00000000000000000E+00   0.00000000000000000E+00   0.00000000000000000E+00
             0.00000000000000000E+00   0.00000000000000000E+00   0.00000000000000000E+00   0.00000000000000000E+00   0.00000000000000000E+00
             0.00000000000000000E+00   0.00000000000000000E+00   0.00000000000000000E+00   0.00000000000000000E+00   0.00000000000000000E+00
             0.00000000000000000E+00   0.00000000000000000E+00   0.00000000000000000E+00   0.00000000000000000E+00   0.00000000000000000E+00
             0.00000000000000000E+00   0.00000000000000000E+00   0.00000000000000000E+00   0.00000000000000000E+00   0.00000000000000000E+00
             0.00000000000000000E+00   0.00000000000000000E+00   0.00000000000000000E+00   0.00000000000000000E+00   0.00000000000000000E+00
             0.00000000000000000E+00   0.00000000000000000E+00   0.00000000000000000E+00   0.00000000000000000E+00   0.00000000000000000E+00
             0.00000000000000000E+00   0.00000000000000000E+00   0.00000000000000000E+00   0.00000000000000000E+00   0.00000000000000000E+00
             0.00000000000000000E+00   0.00000000000000000E+00   0.00000000000000000E+00   0.00000000000000000E+00   0.00000000000000000E+00
             0.00000000000000000E+00   0.00000000000000000E+00   0.00000000000000000E+00   0.00000000000000000E+00   0.00000000000000000E+00
             0.00000000000000000E+00   0.00000000000000000E+00   0.00000000000000000E+00   0.00000000000000000E+00   0.00000000000000000E+00
             0.00000000000000000E+00   0.00000000000000000E+00   0.00000000000000000E+00   0.00000000000000000E+00   4.02500000000000000E+04
             4.05000000000000000E+04   4.07500000000000000E+04   4.10000000000000000E+04   4.12500000000000000E+04   4.15000000000000000E+04
             4.17500000000000000E+04   4.20000000000000000E+04   4.22500000000000000E+04   4.25000000000000000E+04   4.27500000000000000E+04
             4.30000000000000000E+04   4.32500000000000000E+04   4.35000000000000000E+04   4.37500000000000000E+04   4.40000000000000000E+04
             4.42500000000000000E+04   4.45000000000000000E+04   4.47500000000000000E+04   4.50000000000000000E+04   4.52500000000000000E+04
             4.55000000000000000E+04   4.57500000000000000E+04   4.60000000000000000E+04   4.62500000000000000E+04   4.65000000000000000E+04
             4.67500000000000000E+04   4.70000000000000000E+04   4.72500000000000000E+04   4.75000000000000000E+04   4.77500000000000000E+04
             4.80000000000000000E+04   4.82500000000000000E+04   4.85000000000000000E+04   4.87500000000000000E+04   4.90000000000000000E+04
             4.92500000000000000E+04   4.95000000000000000E+04   4.97500000000000000E+04   5.00000000000000000E+04   5.02500000000000000E+04
             5.05000000000000000E+04   0.00000000000000000E+00   0.00000000000000000E+00   0.00000000000000000E+00   0.00000000000000000E+00
             0.00000000000000000E+00   0.00000000000000000E+00   0.00000000000000000E+00   0.00000000000000000E+00   0.00000000000000000E+00
             0.00000000000000000E+00   0.00000000000000000E+00   0.00000000000000000E+00   0.00000000000000000E+00   0.00000000000000000E+00
             0.00000000000000000E+00   0.00000000000000000E+00   0.00000000000000000E+00   0.00000000000000000E+00   0.00000000000000000E+00
             0.00000000000000000E+00   0.00000000000000000E+00   0.00000000000000000E+00   0.00000000000000000E+00   0.00000000000000000E+00
             0.00000000000000000E+00   0.00000000000000000E+00   0.00000000000000000E+00   0.00000000000000000E+00   0.00000000000000000E+00
             0.00000000000000000E+00   0.00000000000000000E+00   0.00000000000000000E+00   0.00000000000000000E+00   0.00000000000000000E+00
             0.00000000000000000E+00   0.00000000000000000E+00   0.00000000000000000E+00   0.00000000000000000E+00   0.00000000000000000E+00
 ETA=   18   0.00000000000000000E+00   0.00000000000000000E+00   0.00000000000000000E+00   0.00000000000000000E+00   0.00000000000000000E+00
[...]
             3.67519418979739858E+04   3.67519418979739858E+04   3.67519418979739858E+04   3.67519418979739858E+04   3.67519418979739858E+04
             3.67519418979739858E+04   3.67519418979739858E+04   3.67519418979739858E+04   3.67519418979739858E+04   3.67519418979739858E+04
             3.67519418979739858E+04   3.67519418979739858E+04   3.67519418979739858E+04   3.67519418979739858E+04   3.67519418979739858E+04
             3.67519418979739858E+04   3.67519418979739858E+04   3.67519418979739858E+04   3.67519418979739858E+04   3.67519418979739858E+04
             3.67519418979739858E+04   3.67519418979739858E+04   3.67519418979739858E+04   3.67519418979739858E+04   3.67519418979739858E+04
             3.67519418979739858E+04   3.67519418979739858E+04   3.67519418979739858E+04   3.67519418979739858E+04   3.67519418979739858E+04
             3.67519418979739858E+04   3.67519418979739858E+04   3.67519418979739858E+04   3.67519418979739858E+04   3.67519418979739858E+04
             3.67519418979739858E+04   3.67519418979739858E+04   3.67519418979739858E+04   3.67519418979739858E+04   3.67519418979739858E+04
 ETA=  261   3.77500000000000000E+04   3.77500000000000000E+04   3.77500000000000000E+04   3.77500000000000000E+04   3.77500000000000000E+04
             3.77500000000000000E+04   3.77500000000000000E+04   3.77500000000000000E+04   3.77500000000000000E+04   3.77500000000000000E+04
             3.77500000000000000E+04   3.77500000000000000E+04   3.77500000000000000E+04   3.77500000000000000E+04   3.77500000000000000E+04
             3.77500000000000000E+04   3.77500000000000000E+04   3.77500000000000000E+04   3.77500000000000000E+04   3.77500000000000000E+04
             3.77500000000000000E+04   3.77500000000000000E+04   3.77500000000000000E+04   3.77500000000000000E+04   3.77500000000000000E+04
             3.77500000000000000E+04   3.77500000000000000E+04   3.77500000000000000E+04   3.77500000000000000E+04   3.77500000000000000E+04
             3.77500000000000000E+04   3.77500000000000000E+04   3.77500000000000000E+04   3.77500000000000000E+04   3.77500000000000000E+04
             3.77500000000000000E+04   3.77500000000000000E+04   3.77500000000000000E+04   3.77500000000000000E+04   3.77500000000000000E+04
             3.77500000000000000E+04   3.77500000000000000E+04   3.77500000000000000E+04   3.77500000000000000E+04   3.77500000000000000E+04
             3.77500000000000000E+04   3.77500000000000000E+04   3.77500000000000000E+04   3.77500000000000000E+04   3.77500000000000000E+04
             3.77500000000000000E+04   3.77500000000000000E+04   3.77500000000000000E+04   3.77500000000000000E+04   3.77500000000000000E+04
             3.77500000000000000E+04   3.77500000000000000E+04   3.77500000000000000E+04   3.77500000000000000E+04   3.77500000000000000E+04
             3.77500000000000000E+04   3.77500000000000000E+04   3.77500000000000000E+04   3.77500000000000000E+04   3.77500000000000000E+04
             3.77500000000000000E+04   3.77500000000000000E+04   3.77500000000000000E+04   3.77500000000000000E+04   3.77500000000000000E+04
             3.77500000000000000E+04   3.77500000000000000E+04   3.77500000000000000E+04   3.77500000000000000E+04   3.77500000000000000E+04
             3.77500000000000000E+04   3.77500000000000000E+04   3.77500000000000000E+04   3.77500000000000000E+04   3.77500000000000000E+04
             3.77500000000000000E+04   3.77500000000000000E+04   3.77500000000000000E+04   3.77500000000000000E+04   3.77500000000000000E+04
             3.77500000000000000E+04   3.77500000000000000E+04   3.77500000000000000E+04   3.77500000000000000E+04   3.77500000000000000E+04
             3.77500000000000000E+04   3.77500000000000000E+04   3.77500000000000000E+04   3.77500000000000000E+04   3.77500000000000000E+04
             3.77500000000000000E+04   3.77500000000000000E+04   3.77500000000000000E+04   3.77500000000000000E+04   3.77500000000000000E+04
             3.77500000000000000E+04   3.77500000000000000E+04   3.77500000000000000E+04   3.77500000000000000E+04   3.77500000000000000E+04
             3.77500000000000000E+04   3.77500000000000000E+04   3.77500000000000000E+04   3.77500000000000000E+04   3.77500000000000000E+04
             3.77500000000000000E+04   3.77500000000000000E+04   3.77500000000000000E+04   3.77500000000000000E+04   3.77500000000000000E+04
             3.77500000000000000E+04   3.77500000000000000E+04   3.77500000000000000E+04   3.77500000000000000E+04   3.77500000000000000E+04
             3.77500000000000000E+04   3.77500000000000000E+04   3.77500000000000000E+04   3.77500000000000000E+04   3.77500000000000000E+04
             3.77500000000000000E+04   3.77500000000000000E+04   3.77500000000000000E+04   3.77500000000000000E+04   3.77500000000000000E+04
             3.77500000000000000E+04   3.77500000000000000E+04   3.77500000000000000E+04   3.77500000000000000E+04   3.77500000000000000E+04
             3.77500000000000000E+04   3.77500000000000000E+04   3.77500000000000000E+04   3.77500000000000000E+04   3.77500000000000000E+04
             3.77500000000000000E+04   3.77500000000000000E+04   3.77500000000000000E+04   3.77500000000000000E+04   3.77500000000000000E+04
             3.77500000000000000E+04   3.77500000000000000E+04   3.77500000000000000E+04   3.77500000000000000E+04   3.77500000000000000E+04
             3.77500000000000000E+04   3.77500000000000000E+04   3.77500000000000000E+04   3.77500000000000000E+04   3.77500000000000000E+04
             3.77500000000000000E+04   3.77500000000000000E+04   3.77500000000000000E+04   3.77500000000000000E+04   3.77500000000000000E+04
             3.77500000000000000E+04   3.77500000000000000E+04   3.77500000000000000E+04   3.77500000000000000E+04   3.77500000000000000E+04
 ETA=  262   3.87500000000000000E+04   3.87500000000000000E+04   3.87500000000000000E+04   3.87500000000000000E+04   3.87500000000000000E+04
             3.87500000000000000E+04   3.87500000000000000E+04   3.87500000000000000E+04   3.87500000000000000E+04   3.87500000000000000E+04
             3.87500000000000000E+04   3.87500000000000000E+04   3.87500000000000000E+04   3.87500000000000000E+04   3.87500000000000000E+04
             3.87500000000000000E+04   3.87500000000000000E+04   3.87500000000000000E+04   3.87500000000000000E+04   3.87500000000000000E+04
             3.87500000000000000E+04   3.87500000000000000E+04   3.87500000000000000E+04   3.87500000000000000E+04   3.87500000000000000E+04
             3.87500000000000000E+04   3.87500000000000000E+04   3.87500000000000000E+04   3.87500000000000000E+04   3.87500000000000000E+04
             3.87500000000000000E+04   3.87500000000000000E+04   3.87500000000000000E+04   3.87500000000000000E+04   3.87500000000000000E+04
             3.87500000000000000E+04   3.87500000000000000E+04   3.87500000000000000E+04   3.87500000000000000E+04   3.87500000000000000E+04
             3.87500000000000000E+04   3.87500000000000000E+04   3.87500000000000000E+04   3.87500000000000000E+04   3.87500000000000000E+04
             3.87500000000000000E+04   3.87500000000000000E+04   3.87500000000000000E+04   3.87500000000000000E+04   3.87500000000000000E+04
             3.87500000000000000E+04   3.87500000000000000E+04   3.87500000000000000E+04   3.87500000000000000E+04   3.87500000000000000E+04
             3.87500000000000000E+04   3.87500000000000000E+04   3.87500000000000000E+04   3.87500000000000000E+04   3.87500000000000000E+04
             3.87500000000000000E+04   3.87500000000000000E+04   3.87500000000000000E+04   3.87500000000000000E+04   3.87500000000000000E+04
             3.87500000000000000E+04   3.87500000000000000E+04   3.87500000000000000E+04   3.87500000000000000E+04   3.87500000000000000E+04
             3.87500000000000000E+04   3.87500000000000000E+04   3.87500000000000000E+04   3.87500000000000000E+04   3.87500000000000000E+04
             3.87500000000000000E+04   3.87500000000000000E+04   3.87500000000000000E+04   3.87500000000000000E+04   3.87500000000000000E+04
             3.87500000000000000E+04   3.87500000000000000E+04   3.87500000000000000E+04   3.87500000000000000E+04   3.87500000000000000E+04
             3.87500000000000000E+04   3.87500000000000000E+04   3.87500000000000000E+04   3.87500000000000000E+04   3.87500000000000000E+04
             3.87500000000000000E+04   3.87500000000000000E+04   3.87500000000000000E+04   3.87500000000000000E+04   3.87500000000000000E+04
             3.87500000000000000E+04   3.87500000000000000E+04   3.87500000000000000E+04   3.87500000000000000E+04   3.87500000000000000E+04
             3.87500000000000000E+04   3.87500000000000000E+04   3.87500000000000000E+04   3.87500000000000000E+04   3.87500000000000000E+04
             3.87500000000000000E+04   3.87500000000000000E+04   3.87500000000000000E+04   3.87500000000000000E+04   3.87500000000000000E+04
             3.87500000000000000E+04   3.87500000000000000E+04   3.87500000000000000E+04   3.87500000000000000E+04   3.87500000000000000E+04
             3.87500000000000000E+04   3.87500000000000000E+04   3.87500000000000000E+04   3.87500000000000000E+04   3.87500000000000000E+04
             3.87500000000000000E+04   3.87500000000000000E+04   3.87500000000000000E+04   3.87500000000000000E+04   3.87500000000000000E+04
             3.87500000000000000E+04   3.87500000000000000E+04   3.87500000000000000E+04   3.87500000000000000E+04   3.87500000000000000E+04
             3.87500000000000000E+04   3.87500000000000000E+04   3.87500000000000000E+04   3.87500000000000000E+04   3.87500000000000000E+04
             3.87500000000000000E+04   3.87500000000000000E+04   3.87500000000000000E+04   3.87500000000000000E+04   3.87500000000000000E+04
             3.87500000000000000E+04   3.87500000000000000E+04   3.87500000000000000E+04   3.87500000000000000E+04   3.87500000000000000E+04
             3.87500000000000000E+04   3.87500000000000000E+04   3.87500000000000000E+04   3.87500000000000000E+04   3.87500000000000000E+04
             3.87500000000000000E+04   3.87500000000000000E+04   3.87500000000000000E+04   3.87500000000000000E+04   3.87500000000000000E+04
             3.87500000000000000E+04   3.87500000000000000E+04   3.87500000000000000E+04   3.87500000000000000E+04   3.87500000000000000E+04
             3.87500000000000000E+04   3.87500000000000000E+04   3.87500000000000000E+04   3.87500000000000000E+04   3.87500000000000000E+04
 ETA=  263   3.97500000000000000E+04   3.97500000000000000E+04   3.97500000000000000E+04   3.97500000000000000E+04   3.97500000000000000E+04
             3.97500000000000000E+04   3.97500000000000000E+04   3.97500000000000000E+04   3.97500000000000000E+04   3.97500000000000000E+04
             3.97500000000000000E+04   3.97500000000000000E+04   3.97500000000000000E+04   3.97500000000000000E+04   3.97500000000000000E+04
             3.97500000000000000E+04   3.97500000000000000E+04   3.97500000000000000E+04   3.97500000000000000E+04   3.97500000000000000E+04
             3.97500000000000000E+04   3.97500000000000000E+04   3.97500000000000000E+04   3.97500000000000000E+04   3.97500000000000000E+04
             3.97500000000000000E+04   3.97500000000000000E+04   3.97500000000000000E+04   3.97500000000000000E+04   3.97500000000000000E+04
             3.97500000000000000E+04   3.97500000000000000E+04   3.97500000000000000E+04   3.97500000000000000E+04   3.97500000000000000E+04
             3.97500000000000000E+04   3.97500000000000000E+04   3.97500000000000000E+04   3.97500000000000000E+04   3.97500000000000000E+04
             3.97500000000000000E+04   3.97500000000000000E+04   3.97500000000000000E+04   3.97500000000000000E+04   3.97500000000000000E+04
             3.97500000000000000E+04   3.97500000000000000E+04   3.97500000000000000E+04   3.97500000000000000E+04   3.97500000000000000E+04
             3.97500000000000000E+04   3.97500000000000000E+04   3.97500000000000000E+04   3.97500000000000000E+04   3.97500000000000000E+04
             3.97500000000000000E+04   3.97500000000000000E+04   3.97500000000000000E+04   3.97500000000000000E+04   3.97500000000000000E+04
             3.97500000000000000E+04   3.97500000000000000E+04   3.97500000000000000E+04   3.97500000000000000E+04   3.97500000000000000E+04
             3.97500000000000000E+04   3.97500000000000000E+04   3.97500000000000000E+04   3.97500000000000000E+04   3.97500000000000000E+04
             3.97500000000000000E+04   3.97500000000000000E+04   3.97500000000000000E+04   3.97500000000000000E+04   3.97500000000000000E+04
             3.97500000000000000E+04   3.97500000000000000E+04   3.97500000000000000E+04   3.97500000000000000E+04   3.97500000000000000E+04
             3.97500000000000000E+04   3.97500000000000000E+04   3.97500000000000000E+04   3.97500000000000000E+04   3.97500000000000000E+04
             3.97500000000000000E+04   3.97500000000000000E+04   3.97500000000000000E+04   3.97500000000000000E+04   3.97500000000000000E+04
             3.97500000000000000E+04   3.97500000000000000E+04   3.97500000000000000E+04   3.97500000000000000E+04   3.97500000000000000E+04
             3.97500000000000000E+04   3.97500000000000000E+04   3.97500000000000000E+04   3.97500000000000000E+04   3.97500000000000000E+04
             3.97500000000000000E+04   3.97500000000000000E+04   3.97500000000000000E+04   3.97500000000000000E+04   3.97500000000000000E+04
             3.97500000000000000E+04   3.97500000000000000E+04   3.97500000000000000E+04   3.97500000000000000E+04   3.97500000000000000E+04
             3.97500000000000000E+04   3.97500000000000000E+04   3.97500000000000000E+04   3.97500000000000000E+04   3.97500000000000000E+04
             3.97500000000000000E+04   3.97500000000000000E+04   3.97500000000000000E+04   3.97500000000000000E+04   3.97500000000000000E+04
             3.97500000000000000E+04   3.97500000000000000E+04   3.97500000000000000E+04   3.97500000000000000E+04   3.97500000000000000E+04
             3.97500000000000000E+04   3.97500000000000000E+04   3.97500000000000000E+04   3.97500000000000000E+04   3.97500000000000000E+04
             3.97500000000000000E+04   3.97500000000000000E+04   3.97500000000000000E+04   3.97500000000000000E+04   3.97500000000000000E+04
             3.97500000000000000E+04   3.97500000000000000E+04   3.97500000000000000E+04   3.97500000000000000E+04   3.97500000000000000E+04
             3.97500000000000000E+04   3.97500000000000000E+04   3.97500000000000000E+04   3.97500000000000000E+04   3.97500000000000000E+04
             3.97500000000000000E+04   3.97500000000000000E+04   3.97500000000000000E+04   3.97500000000000000E+04   3.97500000000000000E+04
             3.97500000000000000E+04   3.97500000000000000E+04   3.97500000000000000E+04   3.97500000000000000E+04   3.97500000000000000E+04
             3.97500000000000000E+04   3.97500000000000000E+04   3.97500000000000000E+04   3.97500000000000000E+04   3.97500000000000000E+04
             3.97500000000000000E+04   3.97500000000000000E+04   3.97500000000000000E+04   3.97500000000000000E+04   3.97500000000000000E+04
 ETA=  264   4.07500000000000000E+04   4.07500000000000000E+04   4.07500000000000000E+04   4.07500000000000000E+04   4.07500000000000000E+04
             4.07500000000000000E+04   4.07500000000000000E+04   4.07500000000000000E+04   4.07500000000000000E+04   4.07500000000000000E+04
             4.07500000000000000E+04   4.07500000000000000E+04   4.07500000000000000E+04   4.07500000000000000E+04   4.07500000000000000E+04
             4.07500000000000000E+04   4.07500000000000000E+04   4.07500000000000000E+04   4.07500000000000000E+04   4.07500000000000000E+04
             4.07500000000000000E+04   4.07500000000000000E+04   4.07500000000000000E+04   4.07500000000000000E+04   4.07500000000000000E+04
             4.07500000000000000E+04   4.07500000000000000E+04   4.07500000000000000E+04   4.07500000000000000E+04   4.07500000000000000E+04
             4.07500000000000000E+04   4.07500000000000000E+04   4.07500000000000000E+04   4.07500000000000000E+04   4.07500000000000000E+04
             4.07500000000000000E+04   4.07500000000000000E+04   4.07500000000000000E+04   4.07500000000000000E+04   4.07500000000000000E+04
             4.07500000000000000E+04   4.07500000000000000E+04   4.07500000000000000E+04   4.07500000000000000E+04   4.07500000000000000E+04
             4.07500000000000000E+04   4.07500000000000000E+04   4.07500000000000000E+04   4.07500000000000000E+04   4.07500000000000000E+04
             4.07500000000000000E+04   4.07500000000000000E+04   4.07500000000000000E+04   4.07500000000000000E+04   4.07500000000000000E+04
             4.07500000000000000E+04   4.07500000000000000E+04   4.07500000000000000E+04   4.07500000000000000E+04   4.07500000000000000E+04
             4.07500000000000000E+04   4.07500000000000000E+04   4.07500000000000000E+04   4.07500000000000000E+04   4.07500000000000000E+04
             4.07500000000000000E+04   4.07500000000000000E+04   4.07500000000000000E+04   4.07500000000000000E+04   4.07500000000000000E+04
             4.07500000000000000E+04   4.07500000000000000E+04   4.07500000000000000E+04   4.07500000000000000E+04   4.07500000000000000E+04
             4.07500000000000000E+04   4.07500000000000000E+04   4.07500000000000000E+04   4.07500000000000000E+04   4.07500000000000000E+04
             4.07500000000000000E+04   4.07500000000000000E+04   4.07500000000000000E+04   4.07500000000000000E+04   4.07500000000000000E+04
             4.07500000000000000E+04   4.07500000000000000E+04   4.07500000000000000E+04   4.07500000000000000E+04   4.07500000000000000E+04
             4.07500000000000000E+04   4.07500000000000000E+04   4.07500000000000000E+04   4.07500000000000000E+04   4.07500000000000000E+04
             4.07500000000000000E+04   4.07500000000000000E+04   4.07500000000000000E+04   4.07500000000000000E+04   4.07500000000000000E+04
             4.07500000000000000E+04   4.07500000000000000E+04   4.07500000000000000E+04   4.07500000000000000E+04   4.07500000000000000E+04
             4.07500000000000000E+04   4.07500000000000000E+04   4.07500000000000000E+04   4.07500000000000000E+04   4.07500000000000000E+04
             4.07500000000000000E+04   4.07500000000000000E+04   4.07500000000000000E+04   4.07500000000000000E+04   4.07500000000000000E+04
             4.07500000000000000E+04   4.07500000000000000E+04   4.07500000000000000E+04   4.07500000000000000E+04   4.07500000000000000E+04
             4.07500000000000000E+04   4.07500000000000000E+04   4.07500000000000000E+04   4.07500000000000000E+04   4.07500000000000000E+04
             4.07500000000000000E+04   4.07500000000000000E+04   4.07500000000000000E+04   4.07500000000000000E+04   4.07500000000000000E+04
             4.07500000000000000E+04   4.07500000000000000E+04   4.07500000000000000E+04   4.07500000000000000E+04   4.07500000000000000E+04
             4.07500000000000000E+04   4.07500000000000000E+04   4.07500000000000000E+04   4.07500000000000000E+04   4.07500000000000000E+04
             4.07500000000000000E+04   4.07500000000000000E+04   4.07500000000000000E+04   4.07500000000000000E+04   4.07500000000000000E+04
             4.07500000000000000E+04   4.07500000000000000E+04   4.07500000000000000E+04   4.07500000000000000E+04   4.07500000000000000E+04
             4.07500000000000000E+04   4.07500000000000000E+04   4.07500000000000000E+04   4.07500000000000000E+04   4.07500000000000000E+04
             4.07500000000000000E+04   4.07500000000000000E+04   4.07500000000000000E+04   4.07500000000000000E+04   4.07500000000000000E+04
             4.07500000000000000E+04   4.07500000000000000E+04   4.07500000000000000E+04   4.07500000000000000E+04   4.07500000000000000E+04
