*
* Deltares, Delft3D-RGFGRID Version 4.17.04.11240, Apr 13 2010, 20:40:47
* File creation date: 2010-11-18, 06:47:43
*
