*
* Deltares, Delft3D-QUICKIN Version 4.17.06.11240, Apr 13 2010, 20:40:49
* File creation date: 2010-05-18, 16:19:30
*
You saved file: D:\temp\example4\example4.dep
