*
* Deltares, Delft3D-RGFGRID Version 4.18.00.15488, Mar 16 2011, 15:07:33
* File creation date: 2011-06-15, 12:01:58
*
Coordinate System = Cartesian
      72      21
 0 0 0
 ETA=    1   9.17299137939276625E+03   9.20807161388614259E+03   9.23971598867603461E+03   9.26890901894467424E+03   9.29644537751181269E+03
             9.32291758707804547E+03   9.34873952586092491E+03   9.37418331455365478E+03   9.39941782593358039E+03   9.42454242581624931E+03
             9.44961187754930688E+03   9.47465504543688985E+03   9.49968633890917226E+03   9.52471196176421472E+03   9.54973516269403262E+03
             9.57475641045029988E+03   9.59977636812414312E+03   9.62479519759327923E+03   9.64981294723966676E+03   9.67482962971808956E+03
             9.69984525988942733E+03   9.72485986442689318E+03   9.74987348574791940E+03   9.77488617813106430E+03   9.79989799360332108E+03
             9.82490897907943327E+03   9.84991918832899137E+03   9.87492869107280603E+03   9.89993755712633902E+03   9.92494584098218729E+03
             9.94995359931052917E+03   9.97496089746527286E+03   9.99996779374664948E+03   1.00249743416712354E+04   1.00499806026276874E+04
             1.00749866564936565E+04   1.00999926005611487E+04   1.01249985365452740E+04   1.01500045620986948E+04   1.01750107802159237E+04
             1.02000172977282273E+04   1.02250242067882609E+04   1.02500315818893741E+04   1.02750394863772908E+04   1.03000479806099029E+04
             1.03250571232087404E+04   1.03500669617985059E+04   1.03750775444456431E+04   1.04000889364111008E+04   1.04251012027666020E+04
             1.04501144007584153E+04   1.04751285868225550E+04   1.05001438139628281E+04   1.05251601261183550E+04   1.05501775550302973E+04
             1.05751961225153809E+04   1.06002158518551641E+04   1.06252368125282355E+04   1.06502591993212045E+04   1.06752837161814241E+04
             1.07003109056030935E+04   1.07253439354594720E+04   1.07503890038519148E+04   1.07754605077869201E+04   1.08005872840670072E+04
             1.08258239090332609E+04   1.08512695145401995E+04   1.08770930028032508E+04   1.09035666435216517E+04   1.09311044830768769E+04
             1.09602989722455786E+04   1.09919448158371961E+04
 ETA=    2   9.17299781044275005E+03   9.20806706849329748E+03   9.23970286175870388E+03   9.26889058430740442E+03   9.29642457630152057E+03
             9.32289676246325689E+03   9.34872011260056024E+03   9.37416603680722983E+03   9.39940297449032369E+03   9.42452985695718962E+03
             9.44960143178288126E+03   9.47464643292335859E+03   9.49967915090469432E+03   9.52470601107102993E+03   9.54973005900282806E+03
             9.57475213390944191E+03   9.59977278487989861E+03   9.62479219480353640E+03   9.64981043245438195E+03   9.67482752666903980E+03
             9.69984350464811178E+03   9.72485840245282634E+03   9.74987227029207679E+03   9.77488516953117141E+03   9.79989715814506781E+03
             9.82490828740803408E+03   9.84991861452785088E+03   9.87492821222132079E+03   9.89993715296088158E+03   9.92494549390675456E+03
             9.94995329464940733E+03   9.97496062474519022E+03   9.99996754812047766E+03   1.00249741244726465E+04   1.00499804209078484E+04
             1.00749865213507710E+04   1.00999925244307578E+04   1.01249985288756470E+04   1.01500046250717060E+04   1.01750109082822328E+04
             1.02000174803087375E+04   1.02250244321276241E+04   1.02500318421379707E+04   1.02750397813975669E+04   1.03000483190306422E+04
             1.03250575218200338E+04   1.03500674434676093E+04   1.03750781366398205E+04   1.04000896710875859E+04   1.04251021151555397E+04
             1.04501155292182902E+04   1.04751299748358906E+04   1.05001455115828176E+04   1.05251621921251080E+04   1.05501800607489167E+04
             1.05751991553295866E+04   1.06002195171623607E+04   1.06252412338749582E+04   1.06502645147806707E+04   1.06752899327237137E+04
             1.07003183859981291E+04   1.07253528443999094E+04   1.07503997247448133E+04   1.07754733039234761E+04   1.08006022798815211E+04
             1.08258412629681297E+04   1.08512890571136322E+04   1.08771140723217868E+04   1.09035878131481240E+04   1.09311233424075326E+04
             1.09603125064283558E+04   1.09919496481538499E+04
 ETA=    3   9.17300349898384229E+03   9.20806157843318215E+03   9.23968885130090894E+03   9.26887139186554305E+03   9.29640316217012696E+03
             9.32287536704544800E+03   9.34870013173343250E+03   9.37414816869521928E+03   9.39938745981253487E+03   9.42451659984964681E+03
             9.44959023790531319E+03   9.47463703466752668E+03   9.49967121680672972E+03   9.52469933013186164E+03   9.54972433862824619E+03
             9.57474728973996935E+03   9.59976869048256231E+03   9.62478873896849291E+03   9.64980751988076008E+03   9.67482507695888489E+03
             9.69984144965333326E+03   9.72485668368662482E+03   9.74987083651963803E+03   9.77488397526046538E+03   9.79989616388403738E+03
             9.82490745997510930E+03   9.84991792582709422E+03   9.87492763660330093E+03   9.89993666701797702E+03   9.92494507895754396E+03
             9.94995293624520855E+03   9.97496031176729957E+03   9.99996727474122963E+03   1.00249738913180918E+04   1.00499802339499474E+04
             1.00749863889313419E+04   1.00999924542996905E+04   1.01249985263001690E+04   1.01500046918794051E+04   1.01750110420386809E+04
             1.02000176746963607E+04   1.02250246801718913E+04   1.02500321404709321E+04   1.02750401330011609E+04   1.03000487335130201E+04
             1.03250580151596059E+04   1.03500680388994824E+04   1.03750788642950629E+04   1.04000905656687410E+04   1.04251032154086242E+04
             1.04501168789965013E+04   1.04751316240812430E+04   1.05001475168827874E+04   1.05251646182800687E+04   1.05501829838454505E+04
             1.05752026654489455E+04   1.06002237197530631E+04   1.06252462474518197E+04   1.06502704666519257E+04   1.06752968993081213E+04
             1.07003266265827406E+04   1.07253625560267028E+04   1.07504112189514126E+04   1.07754868257679282E+04   1.08006179979849767E+04
             1.08258592889480260E+04   1.08513092102505743E+04   1.08771357064899312E+04   1.09036095307975229E+04   1.09311428526636137E+04
             1.09603268185276338E+04   1.09919553709521715E+04
 ETA=    4   9.17300865270398754E+03   9.20805551955203919E+03   9.23967435454397855E+03   9.26885180756720001E+03   9.29638144673278293E+03
             9.32285371076029332E+03   9.34867989995906646E+03   9.37413003763725646E+03   9.39937164033068439E+03   9.42450300571821390E+03
             9.44957866097967781E+03   9.47462721524321023E+03   9.49966286875481092E+03   9.52469223405147568E+03   9.54971826105213222E+03
             9.57474211106007169E+03   9.59976428814430983E+03   9.62478500378508215E+03   9.64980435649545689E+03   9.67482240394543260E+03
             9.69983919735773088E+03   9.72485479202605165E+03   9.74986925235817216E+03   9.77488265047301320E+03   9.79989505620416458E+03
             9.82490653426450626E+03   9.84991715280137760E+03   9.87492698934278451E+03   9.89993612083581866E+03   9.92494461481594408E+03
             9.94995253999897432E+03   9.97495997214617455E+03   9.99996698520815880E+03   1.00249736513578137E+04   1.00499800477843964E+04
             1.00749862622285618E+04   1.00999923912572413E+04   1.01249985292488218E+04   1.01500047624215695E+04   1.01750111800399663E+04
             1.02000178772912532E+04   1.02250249444428155E+04   1.02500324666870092E+04   1.02750405264875553E+04   1.03000492047308999E+04
             1.03250585797234344E+04   1.03500687200391876E+04   1.03750796931044806E+04   1.04000915776692163E+04   1.04251044507370316E+04
             1.04501183841149250E+04   1.04751334518738131E+04   1.05001497268831990E+04   1.05251672779203800E+04   1.05501861706077107E+04
             1.05752064688187820E+04   1.06002282425654976E+04   1.06252516034046421E+04   1.06502767768763788E+04   1.06753042759784803E+04
             1.07003352750352442E+04   1.07253726847812050E+04   1.07504230987351984E+04   1.07755006978519195E+04   1.08006340527881403E+04
             1.08258776223523837E+04   1.08513296430276514E+04   1.08771575949983962E+04   1.09036315090843273E+04   1.09311626985589191E+04
             1.09603415607347342E+04   1.09919616335210485E+04
 ETA=    5   9.17301343777509464E+03   9.20804924964958809E+03   9.23965980154973659E+03   9.26883227377528056E+03   9.29635984795604963E+03
             9.32283219263972205E+03   9.34865979500272806E+03   9.37411200185081725E+03   9.39935586663166941E+03   9.42448940825028694E+03
             9.44956702870566369E+03   9.47461729460752213E+03   9.49965439996922760E+03   9.52468499976616113E+03   9.54971206027507287E+03
             9.57473680893129131E+03   9.59975976412160526E+03   9.62478115116906520E+03   9.64980108175266287E+03   9.67481962671619294E+03
             9.69983684849938982E+03   9.72485281168494839E+03   9.74986758747860949E+03   9.77488125281736757E+03   9.79989388320934086E+03
             9.82490555047297676E+03   9.84991632867606313E+03   9.87492629796032270E+03   9.89993553778053138E+03   9.92494412130254568E+03
             9.94995212220239773E+03   9.97495961903371062E+03   9.99996668988097917E+03   1.00249734121140646E+04   1.00499798669272295E+04
             1.00749861431083846E+04   1.00999923357081789E+04   1.01249985378976216E+04   1.01500048366741012E+04   1.01750113211368607E+04
             1.02000180848653727E+04   1.02250252186153793E+04   1.02500328103266620E+04   1.02750409464417990E+04   1.03000497120129403E+04
             1.03250591897928898E+04   1.03500694556371545E+04   1.03750805847398988E+04   1.04000926602356685E+04   1.04251057641210191E+04
             1.04501199749803909E+04   1.04751353732875159E+04   1.05001520385286403E+04   1.05251700471729910E+04   1.05501894739210948E+04
             1.05752103931477286E+04   1.06002328867843626E+04   1.06252570766998906E+04   1.06502831972439362E+04   1.06753117706759804E+04
             1.07003440246232494E+04   1.07253828970177401E+04   1.07504350215439699E+04   1.07755145701973561E+04   1.08006500734446781E+04
             1.08258958813784338E+04   1.08513499641916078E+04   1.08771793406942397E+04   1.09036533473945146E+04   1.09311824658965597E+04
             1.09603563322536193E+04   1.09919680945645850E+04
 ETA=    6   9.17301796332819140E+03   9.20804312292526811E+03   9.23964568220864749E+03   9.26881333483227536E+03   9.29633890469833750E+03
             9.32281131811586965E+03   9.34864027609457298E+03   9.37409447324139546E+03   9.39934051282843029E+03   9.42447614795932350E+03
             9.44955565766715881E+03   9.47460756973716161E+03   9.49964608042512737E+03   9.52467787659610622E+03   9.54970595140388286E+03
             9.57473157596233250E+03   9.59975528892775401E+03   9.62477733049583730E+03   9.64979782543774127E+03   9.67481685714999730E+03
             9.69983449876136729E+03   9.72485082376415630E+03   9.74986591005051741E+03   9.77487983944882762E+03   9.79989269293970574E+03
             9.82490454895761104E+03   9.84991548714320743E+03   9.87492559056022401E+03   9.89993494147014644E+03   9.92494361812992247E+03
             9.94995169884067764E+03   9.97495926498118024E+03   9.99996639820053861E+03   1.00249731801345006E+04   1.00499796952475499E+04
             1.00749860332399749E+04   1.00999922880404301E+04   1.01249985522258903E+04   1.01500049141985801E+04   1.01750114637462721E+04
             1.02000182938166927E+04   1.02250254960332550E+04   1.02500331606813743E+04   1.02750413773566925E+04   1.03000502346101839E+04
             1.03250598191984445E+04   1.03500702135061292E+04   1.03750814997822581E+04   1.04000937655730631E+04   1.04251070980105542E+04
             1.04501215823469192E+04   1.04751373052753406E+04   1.05001543528010188E+04   1.05251728088675318E+04   1.05501927565540882E+04
             1.05752142797476081E+04   1.06002374713589816E+04   1.06252624637514691E+04   1.06502895021109798E+04   1.06753191247807172E+04
             1.07003525961377927E+04   1.07253928866105089E+04   1.07504466608742332E+04   1.07755280911696173E+04   1.08006656715533736E+04
             1.08259136386892951E+04   1.08513697044803430E+04   1.08772004391111550E+04   1.09036745178481542E+04   1.09312016258177064E+04
             1.09603706602883667E+04   1.09919744111230666E+04
 ETA=    7   9.17302228857346017E+03   9.20803748583211018E+03   9.23963252395734889E+03   9.26879560112986110E+03   9.29631923284473669E+03
             9.32279166243196960E+03   9.34862185749782657E+03   9.37407790181387099E+03   9.39932597297046414E+03   9.42446357212822295E+03
             9.44954485874543934E+03   9.47459832223624653E+03   9.49963816245164890E+03   9.52467109215617529E+03   9.54970013267184368E+03
             9.57472658789383604E+03   9.59975101772147900E+03   9.62477367783028967E+03   9.64979470606913674E+03   9.67481419781257682E+03
             9.69983223635365357E+03   9.72484890364271996E+03   9.74986428408889878E+03   9.77487846450306643E+03   9.79989153109055042E+03
             9.82490356821649220E+03   9.84991466055441560E+03   9.87492489425879103E+03   9.89993435452882659E+03   9.92494312397877184E+03
             9.94995128497903352E+03   9.97495892168139108E+03   9.99996611877334362E+03   1.00249729612846040E+04   1.00499795362857585E+04
             1.00749859343446460E+04   1.00999922487759832E+04   1.01249985720504319E+04   1.01500049940893641E+04   1.01750116057553605E+04
             1.02000185000948422E+04   1.02250257697993948E+04   1.02500335071441987E+04   1.02750418042565198E+04   1.03000507526594083E+04
             1.03250604427212911E+04   1.03500709624229057E+04   1.03750824001060846E+04   1.04000948476863996E+04   1.04251083973355871E+04
             1.04501231405333619E+04   1.04751391699080359E+04   1.05001565777862470E+04   1.05251754552913080E+04   1.05501958933606402E+04
             1.05752179847573643E+04   1.06002418327597006E+04   1.06252675805677154E+04   1.06502954857427267E+04   1.06753261046840034E+04
             1.07003607309899598E+04   1.07254023657612870E+04   1.07504576991904651E+04   1.07755409058422629E+04   1.08006804432521494E+04
             1.08259304339454520E+04   1.08513883424696742E+04   1.08772203146454704E+04   1.09036944104853137E+04   1.09312195762122046E+04
             1.09603840270001747E+04   1.09919802443400185E+04
 ETA=    8   9.17302642916162768E+03   9.20803266273502231E+03   9.23962085743443458E+03   9.26877970385466324E+03   9.29630147787780516E+03
             9.32277383068513336E+03   9.34860507846934706E+03   9.37406275536123394E+03   9.39931264986124734E+03   9.42445202863562008E+03
             9.44953493552412510E+03   9.47458981975854294E+03   9.49963088180263185E+03   9.52466485476912567E+03   9.54969478529294975E+03
             9.57472200364986929E+03   9.59974708984142126E+03   9.62477031488249486E+03   9.64979182943497472E+03   9.67481174021722472E+03
             9.69983014008976897E+03   9.72484711890981998E+03   9.74986276730290956E+03   9.77487717701563270E+03   9.79989043914927606E+03
             9.82490264326122633E+03   9.84991387843907978E+03   9.87492423387050985E+03   9.89993379758113770E+03   9.92494265577114129E+03
             9.94995089422499223E+03   9.97495859965596355E+03   9.99996585929312096E+03   1.00249727608042122E+04   1.00499793932941138E+04
             1.00749858481539013E+04   1.00999922185151700E+04   1.01249985970640810E+04   1.01500050751104864E+04   1.01750117446989825E+04
             1.02000186994338765E+04   1.02250260331205700E+04   1.02500338396944426E+04   1.02750422133181401E+04   1.03000512480008565E+04
             1.03250610372674455E+04   1.03500716737215171E+04   1.03750832507929954E+04   1.04000958645610062E+04   1.04251096119320737E+04
             1.04501245900031408E+04   1.04751408969488875E+04   1.05001586310953226E+04   1.05251778903462418E+04   1.05501987730305791E+04
             1.05752213802980714E+04   1.06002458253144705E+04   1.06252722622712026E+04   1.06503009617795124E+04   1.06753324980786401E+04
             1.07003681892641671E+04   1.07254110626393067E+04   1.07504678284370821E+04   1.07755526610461766E+04   1.08006939789930093E+04
             1.08259457922213915E+04   1.08514053335539884E+04   1.08772383607654028E+04   1.09037123821818204E+04   1.09312356898014350E+04
             1.09603959066552197E+04   1.09919852745940098E+04
 ETA=    9   9.17303036046653506E+03   9.20802893740239597E+03   9.23961118085645467E+03   9.26876625181765303E+03   9.29628627227451398E+03
             9.32275842169774660E+03   9.34859047537175320E+03   9.37404949926628797E+03   9.39930094164154616E+03   9.42444185717523214E+03
             9.44952617921685487E+03   9.47458231367616281E+03   9.49962445597493934E+03   9.52465935306807842E+03   9.54969007193886864E+03
             9.57471796414300115E+03   9.59974362755380571E+03   9.62476734759243118E+03   9.64978928705503859E+03   9.67480956320295081E+03
             9.69982827771271150E+03   9.72484552764088949E+03   9.74986140933892057E+03   9.77487601923005241E+03   9.79988945287706156E+03
             9.82490180428864733E+03   9.84991316630479378E+03   9.87492363085314355E+03   9.89993328843725612E+03   9.92494222807430560E+03
             9.94995053827031006E+03   9.97495830794154244E+03   9.99996562637354691E+03   1.00249725832259173E+04   1.00499792691478251E+04
             1.00749857762742231E+04   1.00999921978317980E+04   1.01249986268776847E+04   1.01500051558819578E+04   1.01750118780238681E+04
             1.02000188876912744E+04   1.02250262797270479E+04   1.02500341493972664E+04   1.02750425924571737E+04   1.03000517049018308E+04
             1.03250615828580594E+04   1.03500723225949278E+04   1.03750840216582728E+04   1.04000967799014816E+04   1.04251106984907019E+04
             1.04501258794363312E+04   1.04751424259460000E+04   1.05001604418841271E+04   1.05251800314156881E+04   1.05502012997275397E+04
             1.05752243558239279E+04   1.06002493222190624E+04   1.06252763638630295E+04   1.06503057641712385E+04   1.06753381137203833E+04
             1.07003747507841454E+04   1.07254187231127835E+04   1.07504767543858597E+04   1.07755630133791728E+04   1.08007058758947333E+04
             1.08259592429907825E+04   1.08514201370860283E+04   1.08772539764654503E+04   1.09037278004583914E+04   1.09312493588519246E+04
             1.09604058028845902E+04   1.09919892205011038E+04
 ETA=   10   9.17303401925502112E+03   9.20802653451181868E+03   9.23960392736280482E+03   9.26875579318139353E+03   9.29627419827560516E+03
             9.32274599581159600E+03   9.34857855583707169E+03   9.37403857664612951E+03   9.39929122716778511E+03   9.42443337864339446E+03
             9.44951886122665201E+03   9.47457603408917021E+03   9.49961908044921802E+03   9.52465475344573315E+03   9.54968613409060890E+03
             9.57471459008173042E+03   9.59974073412272810E+03   9.62476486433901664E+03   9.64978715448891853E+03   9.67480773132115610E+03
             9.69982670435061664E+03   9.72484417690321970E+03   9.74986025032801081E+03   9.77487502522971772E+03   9.79988860108237714E+03
             9.82490107560604156E+03   9.84991254468776788E+03   9.87492310249134425E+03   9.89993284144815152E+03   9.92494185261591520E+03
             9.94995022651678664E+03   9.97495805381024184E+03   9.99996542535477784E+03   1.00249724322338607E+04   1.00499791662108310E+04
             1.00749857200452861E+04   1.00999921871806255E+04   1.01249986610586675E+04   1.01500052350494643E+04   1.01750120033457151E+04
             1.02000190611816051E+04   1.02250265042675037E+04   1.02500344288495580E+04   1.02750429318403912E+04   1.03000521106785836E+04
             1.03250620634411880E+04   1.03500728891247618E+04   1.03750846884542570E+04   1.04000975645119706E+04   1.04251116221136726E+04
             1.04501269674043415E+04   1.04751437079697425E+04   1.05001619526079812E+04   1.05251818110940876E+04   1.05502033947713280E+04
             1.05752268197717913E+04   1.06002522172010977E+04   1.06252797620443416E+04   1.06503097493915266E+04   1.06753427836394749E+04
             1.07003802184625001E+04   1.07254251153443656E+04   1.07504842036173686E+04   1.07755716393148341E+04   1.08007157516695206E+04
             1.08259703392573429E+04   1.08514322418160045E+04   1.08772665987670971E+04   1.09037400815670953E+04   1.09312600343694139E+04
             1.09604132822783122E+04   1.09919918577867647E+04
 ETA=   11   9.17303730549020474E+03   9.20802560404546239E+03   9.23959943765144271E+03   9.26874878320779317E+03   9.29626575593499547E+03
             9.32273704624495986E+03   9.34856977464882220E+03   9.37403038874157937E+03   9.39928385049411918E+03   9.42442688303283103E+03
             9.44951322385813364E+03   9.47457118282104420E+03   9.49961492324219398E+03   9.52465119588539164E+03   9.54968308841913677E+03
             9.57471197898995524E+03   9.59973849132924988E+03   9.62476293382271251E+03   9.64978548949171090E+03   9.67480629320629305E+03
             9.69982546106273367E+03   9.72484310144035044E+03   9.74985931968183831E+03   9.77487421984593675E+03   9.79988790465600687E+03
             9.82490047479377972E+03   9.84991202843478095E+03   9.87492266129659583E+03   9.89993246702435317E+03   9.92494153791375902E+03
             9.94994996579194049E+03   9.97495784254772298E+03   9.99996526012975664E+03   1.00249723105196463E+04   1.00499790862046775E+04
             1.00749856804235624E+04   1.00999921868306519E+04   1.01249986991588394E+04   1.01500053114102029E+04   1.01750121186525794E+04
             1.02000192169454149E+04   1.02250267026238180E+04   1.02500346725294239E+04   1.02750432242878123E+04   1.03000524561867987E+04
             1.03250624675150011E+04   1.03500733590559594E+04   1.03750852337871729E+04   1.04000981973651469E+04   1.04251123575383699E+04
             1.04501278237208808E+04   1.04751447070701779E+04   1.05001631205767026E+04   1.05251831788402269E+04   1.05502049984130190E+04
             1.05752287015173315E+04   1.06002544267616759E+04   1.06252823579107917E+04   1.06503127997724077E+04   1.06753463671202553E+04
             1.07003844235080742E+04   1.07254300365636373E+04   1.07504899325607221E+04   1.07755782470279501E+04   1.08007232597603524E+04
             1.08259786768055637E+04   1.08514411898769522E+04   1.08772757316316602E+04   1.09037487230258121E+04   1.09312672589317226E+04
             1.09604180022827532E+04   1.09919930351742059E+04
 ETA=   12   9.17304008562784111E+03   9.20802621043554427E+03   9.23959793929573971E+03   9.26874555866518858E+03   9.29626133647744973E+03
             9.32273197387016262E+03   9.34856451123898478E+03   9.37402527555486267E+03   9.39927910464172783E+03   9.42442261607906039E+03
             9.44950946952246341E+03   9.47456792483011486E+03   9.49961211808257212E+03   9.52464878858039265E+03   9.54968102236514278E+03
             9.57471020162268178E+03   9.59973695657466669E+03   9.62476160270719447E+03   9.64978433007071362E+03   9.67480527996114324E+03
             9.69982457348903154E+03   9.72484232253123082E+03   9.74985863511770003E+03   9.77487361782201697E+03   9.79988737585978197E+03
             9.82490001210760056E+03   9.84991162621225158E+03   9.87492231461160372E+03   9.89993217131872370E+03   9.92494128902985176E+03
             9.94994976016287183E+03   9.97495767730581974E+03   9.99996513302113271E+03   1.00249722196716939E+04   1.00499790301069352E+04
             1.00749856578995877E+04   1.00999921968191848E+04   1.01249987407244644E+04   1.01500053839845132E+04   1.01750122224326788E+04
             1.02000193529238732E+04   1.02250268721153770E+04   1.02500348770201072E+04   1.02750434655324989E+04   1.03000527361471759E+04
             1.03250627885453632E+04   1.03500737243221229E+04   1.03750856477603447E+04   1.04000986663797285E+04   1.04251128900588901E+04
             1.04501284305043864E+04   1.04751454014841165E+04   1.05001639193269930E+04   1.05251841025564809E+04   1.05502060716849483E+04
             1.05752299535885031E+04   1.06002558928887702E+04   1.06252840803473518E+04   1.06503148277713681E+04   1.06753487560030480E+04
             1.07003872321555973E+04   1.07254333215719598E+04   1.07504937382123844E+04   1.07755825896513998E+04   1.08007281054321993E+04
             1.08259839134683371E+04   1.08514465993449303E+04   1.08772809714478608E+04   1.09037533306592923E+04   1.09312706926413248E+04
             1.09604197321611591E+04   1.09919926854139285E+04
 ETA=   13   9.17304219820123035E+03   9.20802832742670762E+03   9.23959953343754569E+03   9.26874631920902539E+03   9.29626120100470689E+03
             9.32273106537469357E+03   9.34856304880432617E+03   9.37402349680230509E+03   9.39927721480983928E+03   9.42442076486927363E+03
             9.44950774870186069E+03   9.47456637835376932E+03   9.49961075649120539E+03   9.52464760167132590E+03   9.54967998911585710E+03
             9.57470929795596567E+03   9.59973615971334584E+03   9.62476089313413286E+03   9.64978369253563869E+03   9.67480470362917549E+03
             9.69982405065551575E+03   9.72484184705571897E+03   9.74985820192699975E+03   9.77487322324254455E+03   9.79988701788371691E+03
             9.82489969013824339E+03   9.84991134025184692E+03   9.87492206441983035E+03   9.89993195607745838E+03   9.92494110745792568E+03
             9.94994961085680188E+03   9.97495755904177349E+03   9.99996504472700508E+03   1.00249721601181845E+04   1.00499789980924288E+04
             1.00749856524482657E+04   1.00999922169170204E+04   1.01249987852816248E+04   1.01500054520295143E+04   1.01750123137191513E+04
             1.02000194680274217E+04   1.02250270115773637E+04   1.02500350410885276E+04   1.02750436543118867E+04   1.03000529492755923E+04
             1.03250630251560469E+04   1.03500739833129883E+04   1.03750859283382597E+04   1.04000989689050384E+04   1.04251132161491150E+04
             1.04501287829516805E+04   1.04751457845827517E+04   1.05001643397906537E+04   1.05251845700535723E+04   1.05502065982624463E+04
             1.05752305540480829E+04   1.06002565861178173E+04   1.06252848899546989E+04   1.06503157809646873E+04   1.06753498809774792E+04
             1.07003885536243761E+04   1.07254348526507110E+04   1.07504954702351952E+04   1.07755844797139380E+04   1.08007300625890712E+04
             1.08259857882636097E+04   1.08514481853216148E+04   1.08772820291485732E+04   1.09037536401621019E+04   1.09312701319339485E+04
             1.09604183663799377E+04   1.09919908304817181E+04
 ETA=   14   9.17304346186712064E+03   9.20803183874344359E+03   9.23960418887403648E+03   9.26875111568831016E+03   9.29626546447371948E+03
             9.32273447476540969E+03   9.34856555507292614E+03   9.37402521327854447E+03   9.39927832117533944E+03   9.42442144260326131E+03
             9.44950814690521293E+03   9.47456660403691421E+03   9.49961087902297913E+03   9.52464766040126415E+03   9.54968000219642090E+03
             9.57470927293368004E+03   9.59973609977247179E+03   9.62476080025005649E+03   9.64978356966941647E+03   9.67480455586386233E+03
             9.69982388402057404E+03   9.72484166682728210E+03   9.74985801253071622E+03   9.77487302926450684E+03   9.79988682470819731E+03
             9.82489950376156958E+03   9.84991116635476465E+03   9.87492190737120472E+03   9.89993181866559280E+03   9.92494099115035169E+03
             9.94994951629461320E+03   9.97495748655170064E+03   9.99996499434355792E+03   1.00249721311317735E+04   1.00499789895222912E+04
             1.00749856635083379E+04   1.00999922465951258E+04   1.01249988322897843E+04   1.01500055149942709E+04   1.01750123920544920E+04
             1.02000195620979321E+04   1.02250271213071373E+04   1.02500351656071671E+04   1.02750437922711189E+04   1.03000530981910815E+04
             1.03250631810643463E+04   1.03500741408605354E+04   1.03750860814104763E+04   1.04000991118920701E+04   1.04251133437633780E+04
             1.04501288897883733E+04   1.04751458655158312E+04   1.05001643912039272E+04   1.05251845903243484E+04   1.05502065862362560E+04
             1.05752305089253750E+04   1.06002565087994808E+04   1.06252847833364940E+04   1.06503156475508931E+04   1.06753497185723354E+04
             1.07003883490414719E+04   1.07254345706069907E+04   1.07504950441785295E+04   1.07755838045312994E+04   1.08007289911012303E+04
             1.08259841402364273E+04   1.08514457794820100E+04   1.08772787490188530E+04   1.09037495332877952E+04   1.09312655213065882E+04
             1.09604139303993925E+04   1.09919875808752640E+04
 ETA=   15   9.17304368548730054E+03   9.20803654372719575E+03   9.23961174279033730E+03   9.26875984488017457E+03   9.29627408467435453E+03
             9.32274220812981366E+03   9.34857206475991916E+03   9.37403046875915243E+03   9.39928246143059187E+03   9.42442467268004475E+03
             9.44951067082508962E+03   9.47456859324471770E+03   9.49961246590089468E+03   9.52464893799343554E+03   9.54968102990198713E+03
             9.57471009216070524E+03   9.59973674173001200E+03   9.62476128990915095E+03   9.64978392918253849E+03   9.67480480694363177E+03
             9.69982404688025963E+03   9.72484175828056868E+03   9.74985804639204434E+03   9.77487301821257097E+03   9.79988678132892892E+03
             9.82489944042822208E+03   9.84991109418748783E+03   9.87492183504160130E+03   9.89993175227440042E+03   9.92494093468653227E+03
             9.94994947223895360E+03   9.97495745659970089E+03   9.99996497946230375E+03   1.00249721308943499E+04   1.00499790029806936E+04
             1.00749856899846563E+04   1.00999922849832656E+04   1.01249988810576415E+04   1.01500055724203448E+04   1.01750124573872927E+04
             1.02000196357736077E+04   1.02250272028810832E+04   1.02500352533181940E+04   1.02750438836686335E+04   1.03000531890792554E+04
             1.03250632647284747E+04   1.03500742079050542E+04   1.03750861205204328E+04   1.04000991117118210E+04   1.04251132922602010E+04
             1.04501287733249828E+04   1.04751456694726730E+04   1.05001641016707363E+04   1.05251841945146571E+04   1.05502060696569151E+04
             1.05752298545459835E+04   1.06002556984199382E+04   1.06252837975757902E+04   1.06503144621442643E+04   1.06753482985387036E+04
             1.07003866410946393E+04   1.07254324867418600E+04   1.07504924555866164E+04   1.07755805423516485E+04   1.08007248544304530E+04
             1.08259789268157565E+04   1.08514393480314047E+04   1.08772711243221274E+04   1.09037410489537197E+04   1.09312569584566991E+04
             1.09604065795577972E+04   1.09919831298905337E+04
 ETA=   16   9.17304267934745985E+03   9.20804216610701224E+03   9.23962190644207476E+03   9.26877224958066654E+03   9.29628685569077788E+03
             9.32275411153929781E+03   9.34858246378597323E+03   9.37403917262788309E+03   9.39928955322392721E+03   9.42443037225706757E+03
             9.44951523388268652E+03   9.47457225569897491E+03   9.49961542722992999E+03   9.52465134857459270E+03   9.54968298978643179E+03
             9.57471167773695197E+03   9.59973801354080751E+03   9.62476229674569186E+03   9.64978471265405096E+03   9.67480540532375744E+03
             9.69982449428719883E+03   9.72484208263174878E+03   9.74985827038446951E+03   9.77487316212544465E+03   9.79988686442114886E+03
             9.82489948085519609E+03   9.84991110790919811E+03   9.87492183444769944E+03   9.89993174631957481E+03   9.92494092958136389E+03
             9.94994947205154676E+03   9.97495746413462257E+03   9.99996499632764608E+03   1.00249721566100907E+04   1.00499790363530083E+04
             1.00749857302620985E+04   1.00999923308096804E+04   1.01249989306193402E+04   1.01500056237994813E+04   1.01750125099242850E+04
             1.02000196902765601E+04   1.02250272588542539E+04   1.02500353084515100E+04   1.02750439348883720E+04   1.03000532310954422E+04
             1.03250632886664607E+04   1.03500742007870431E+04   1.03750860662095456E+04   1.04000989935586967E+04   1.04251130918563340E+04
             1.04501284690062239E+04   1.04751452374418677E+04   1.05001635182567679E+04   1.05251834364428269E+04   1.05502051096729865E+04
             1.05752286595743171E+04   1.06002542308015436E+04   1.06252820147312432E+04   1.06503123116506977E+04   1.06753457112946071E+04
             1.07003835242265595E+04   1.07254286955898388E+04   1.07504877947939967E+04   1.07755747791099711E+04   1.08007177373434970E+04
             1.08259702414218518E+04   1.08514290079582315E+04   1.08772593099434234E+04   1.09037283898119567E+04   1.09312446938802841E+04
             1.09603965926195269E+04   1.09919777447723336E+04
 ETA=   17   9.17304026642603822E+03   9.20804836296577014E+03   9.23963427278299969E+03   9.26878792213646557E+03   9.29630340496448480E+03
             9.32276986193531047E+03   9.34859647536199373E+03   9.37405108347990972E+03   9.39929937667344348E+03   9.42443833534077930E+03
             9.44952164127667129E+03   9.47457740648697654E+03   9.49961959290096092E+03   9.52465474045838891E+03   9.54968574338018880E+03
             9.57471390442985103E+03   9.59973980363461305E+03   9.62476372285607795E+03   9.64978583520786560E+03   9.67480627796123372E+03
             9.69982516368353208E+03   9.72484258667246468E+03   9.74985863974924177E+03   9.77487342386508863E+03   9.79988704353192770E+03
             9.82489960018575766E+03   9.84991118717217250E+03   9.87492188884142524E+03   9.89993178704260754E+03   9.92494096473167883E+03
             9.94994950704488110E+03   9.97495750256962128E+03   9.99996504002497932E+03   1.00249722046413081E+04   1.00499790869251810E+04
             1.00749857822102567E+04   1.00999923823094741E+04   1.01249989795803358E+04   1.01500056684139909E+04   1.01750125499699661E+04
             1.02000197271566976E+04   1.02250272923719294E+04   1.02500353362253718E+04   1.02750439537830953E+04   1.03000532355041796E+04
             1.03250632684045286E+04   1.03500741400997576E+04   1.03750859449054060E+04   1.04000987903407604E+04   1.04251127824685336E+04
             1.04501280242936791E+04   1.04751446253078175E+04   1.05001627064446402E+04   1.05251823924784094E+04   1.05502037950463728E+04
             1.05752270265439201E+04   1.06002522229812512E+04   1.06252795661842902E+04   1.06503093410629190E+04   1.06753421150961076E+04
             1.07003791752617963E+04   1.07254233883742054E+04   1.07504812622890313E+04   1.07755667257731329E+04   1.08007078635568996E+04
             1.08259583299559345E+04   1.08514150413291627E+04   1.08772436323623442E+04   1.09037119252759603E+04   1.09312291267914243E+04
             1.09603843628115392E+04   1.09919717576710609E+04
 ETA=   18   9.17303629328797615E+03   9.20805472974722397E+03   9.23964832071173987E+03   9.26880630745479721E+03   9.29632319165085937E+03
             9.32278895991301761E+03   9.34861364734768540E+03   9.37406579348275591E+03   9.39931155676158414E+03   9.42444821501621300E+03
             9.44952957430436800E+03   9.47458375228792102E+03   9.49962470212981316E+03   9.52465888991979045E+03   9.54968909121896104E+03
             9.57471659639056634E+03   9.59974195918327132E+03   9.62476543741500609E+03   9.64978718622429915E+03   9.67480733168762890E+03
             9.69982597650887510E+03   9.72484320443142860E+03   9.74985909983061720E+03   9.77487375892551972E+03   9.79988728288663879E+03
             9.82489976966607355E+03   9.84991130852783499E+03   9.87492197881201901E+03   9.89993185833782081E+03   9.92494102700610711E+03
             9.94994956690267463E+03   9.97495756407242880E+03   9.99996510464968742E+03   1.00249722706185639E+04   1.00499791514503304E+04
             1.00749858431404282E+04   1.00999924370927638E+04   1.01249990259658152E+04   1.01500057052070588E+04   1.01750125777912654E+04
             1.02000197480431107E+04   1.02250273067530543E+04   1.02500353422813932E+04   1.02750439488968750E+04   1.03000532145743327E+04
             1.03250632210301828E+04   1.03500740490410681E+04   1.03750857872413690E+04   1.04000985408909728E+04   1.04251124117380677E+04
             1.04501274966734636E+04   1.04751439020712223E+04   1.05001617487129770E+04   1.05251811605431176E+04   1.05502022417972039E+04
             1.05752250926030265E+04   1.06002498354975505E+04   1.06252766366458691E+04   1.06503057591012803E+04   1.06753377427807245E+04
             1.07003738645174399E+04   1.07254168673340246E+04   1.07504731848926858E+04   1.07755567367384319E+04   1.08006956136963963E+04
             1.08259436062095592E+04   1.08513979077881340E+04   1.08772245982554396E+04   1.09036921935856062E+04   1.09312108012210774E+04
             1.09603703915645092E+04   1.09919655602590883E+04
 ETA=   19   9.17303064492736303E+03   9.20806079601540841E+03   9.23966340421448876E+03   9.26882669279368019E+03   9.29634549524007525E+03
             9.32281071529217115E+03   9.34863333357560987E+03   9.37408270825931322E+03   9.39932554190811243E+03   9.42445950174364589E+03
             9.44953857183392574E+03   9.47459087575174999E+03   9.49963039200669846E+03   9.52466349477805306E+03   9.54969276807258211E+03
             9.57471952463557682E+03   9.59974428558446743E+03   9.62476727770446996E+03   9.64978863144879506E+03   9.67480845592883634E+03
             9.69982684112098468E+03   9.72484386005894157E+03   9.74985958886608751E+03   9.77487411810162484E+03   9.79988754386212895E+03
             9.82489995882948460E+03   9.84991144724530204E+03   9.87492208373178255E+03   9.89993194284925085E+03   9.92494110200563409E+03
             9.94994964013608660E+03   9.97495763977922070E+03   9.99996518337605630E+03   1.00249723494278060E+04   1.00499792260611521E+04
             1.00749859096499658E+04   1.00999924919833429E+04   1.01249990671446540E+04   1.01500057327572467E+04   1.01750125935476262E+04
             1.02000197544780785E+04   1.02250273051581280E+04   1.02500353321401926E+04   1.02750439286362416E+04   1.03000531802903115E+04
             1.03250631633876656E+04   1.03500739512333221E+04   1.03750856256112220E+04   1.04000982872088498E+04   1.04251120319611800E+04
             1.04501269505363762E+04   1.04751431469177714E+04   1.05001607419116735E+04   1.05251798579411661E+04   1.05502005917120496E+04
             1.05752230291357391E+04   1.06002472736785130E+04   1.06252734675599077E+04   1.06503018438010859E+04   1.06753329087807724E+04
             1.07003679679911347E+04   1.07254095619988220E+04   1.07504640349181154E+04   1.07755453323983711E+04   1.08006815478643421E+04
             1.08259266711672863E+04   1.08513782617079341E+04   1.08772029108625084E+04   1.09036699144701197E+04   1.09311904148733174E+04
             1.09603552970679848E+04   1.09919596062117707E+04
 ETA=   20   9.17302329304649356E+03   9.20806600806823008E+03   9.23967869199169400E+03   9.26884813183904407E+03   9.29636933810565461E+03
             9.32283417143345287E+03   9.34865462288393064E+03   9.37410098741733782E+03   9.39934055425868974E+03   9.42447148071413358E+03
             9.44954799768311932E+03   9.47459821231347632E+03   9.49963618183119615E+03   9.52466816446475605E+03   9.54969643758452912E+03
             9.57472240550039351E+03   9.59974654785514394E+03   9.62476905227134557E+03   9.64979001694976796E+03   9.67480952708167206E+03
             9.69982765744320022E+03   9.72484447245195224E+03   9.74986004224494900E+03   9.77487445120065968E+03   9.79988778809818723E+03
             9.82490013806989191E+03   9.84991157949086482E+03   9.87492218358841819E+03   9.89993202342228324E+03   9.92494117506341536E+03
             9.94994971455540144E+03   9.97495771982314182E+03   9.99996526827923117E+03   1.00249724348697473E+04   1.00499793058028845E+04
             1.00749859772542350E+04   1.00999925428825391E+04   1.01249990999512684E+04   1.01500057494561152E+04   1.01750125973485501E+04
             1.02000197479458966E+04   1.02250272905186375E+04   1.02500353108165018E+04   1.02750439004851978E+04   1.03000531430208212E+04
             1.03250631100893570E+04   1.03500738680211398E+04   1.03750854906229106E+04   1.04000980702479847E+04   1.04251116955581329E+04
             1.04501264526340656E+04   1.04751424447867248E+04   1.05001597930321350E+04   1.05251786176858386E+04   1.05501990094307930E+04
             1.05752210398044535E+04   1.06002447872953217E+04   1.06252703595553467E+04   1.06502979487674129E+04   1.06753280198554457E+04
             1.07003619837778551E+04   1.07254020531564111E+04   1.07504544636204500E+04   1.07755332428345882E+04   1.08006664584068949E+04
             1.08259083708235321E+04   1.08513570193243668E+04   1.08771795469238568E+04   1.09036460693691224E+04   1.09311688934690883E+04
             1.09603398738944434E+04   1.09919544230317388E+04
 ETA=   21   9.17301451554118648E+03   9.20806971956263988E+03   9.23969295964840057E+03   9.26886911444110228E+03   9.29639311772133624E+03
             9.32285774277970268E+03   9.34867601486001513E+03   9.37411929160762338E+03   9.39935540392971961E+03   9.42448309711627735E+03
             9.44955694902419600E+03   9.47460499568423074E+03   9.49964144023757035E+03   9.52467239656248603E+03   9.54969968299526590E+03
             9.57472490001824735E+03   9.59974847492811750E+03   9.62477054718933869E+03   9.64979117551960189E+03   9.67481041489381096E+03
             9.69982832376927399E+03   9.72484496223554379E+03   9.74986039878988595E+03   9.77487471200690925E+03   9.79988798110878633E+03
             9.82490028133903434E+03   9.84991168470041703E+03   9.87492226122145803E+03   9.89993208504717950E+03   9.92494123262197536E+03
             9.94994977781214402E+03   9.97495779309152567E+03   9.99996534961562793E+03   1.00249725185749539E+04   1.00499793834444117E+04
             1.00749860396762069E+04   1.00999925847567683E+04   1.01249991211526049E+04   1.01500057540129874E+04   1.01750125895956207E+04
             1.02000197302744036E+04   1.02250272659387356E+04   1.02500352828088689E+04   1.02750438704596254E+04   1.03000531104584934E+04
             1.03250630716866763E+04   1.03500738152324357E+04   1.03750854059551693E+04   1.04000979235587729E+04   1.04251114485498001E+04
             1.04501260657120092E+04   1.04751418800595166E+04   1.05001590130734658E+04   1.05251775830702045E+04   1.05501976777697037E+04
             1.05752193563272649E+04   1.06002426676366722E+04   1.06252676737661604E+04   1.06502945132765090E+04   1.06753235998114687E+04
             1.07003565656560004E+04   1.07253951283260121E+04   1.07504453938835268E+04   1.07755215438791456E+04   1.08006515610261977E+04
             1.08258900485083832E+04   1.08513356755458917E+04   1.08771561160572310E+04   1.09036222726909564E+04   1.09311477206257368E+04
             1.09603253067220412E+04   1.09919506090933210E+04
 ETA=    1   1.74809357947894597E+02   1.74806743080739921E+02   1.74816741449651971E+02   1.74834184935858815E+02   1.74854971537495203E+02
             1.74876278370160293E+02   1.74896360202170143E+02   1.74914342389955067E+02   1.74929856499171677E+02   1.74942941373323379E+02
             1.74953816224319951E+02   1.74962724935763987E+02   1.74970047199601936E+02   1.74976086224033594E+02   1.74981141150858889E+02
             1.74985419305571639E+02   1.74988977579002153E+02   1.74991940071171115E+02   1.74994406884708184E+02   1.74996458564008122E+02
             1.74998161583701744E+02   1.74999572070870073E+02   1.75000737777696742E+02   1.75001698661268136E+02   1.75002487934400108E+02
             1.75003134343983618E+02   1.75003663830679187E+02   1.75004099408679110E+02   1.75004460911063319E+02   1.75004765960719112E+02
             1.75005030374496442E+02   1.75005266541290837E+02   1.75005481681744897E+02   1.75005677317094978E+02   1.75005849247784539E+02
             1.75005987976935018E+02   1.75006080315036229E+02   1.75006113353484551E+02   1.75006080201167833E+02   1.75005983070273999E+02
             1.75005831420884874E+02   1.75005637984238774E+02   1.75005414142331688E+02   1.75005165217415595E+02   1.75004887606063335E+02
             1.75004568387279306E+02   1.75004187544765017E+02   1.75003720829923878E+02   1.75003140161817015E+02   1.75002413758289265E+02
             1.75001507311897058E+02   1.75000383220943661E+02   1.74998998426730651E+02   1.74997302254419708E+02   1.74995233235976514E+02
             1.74992715254168360E+02   1.74989654472324617E+02   1.74985936967852098E+02   1.74981428588745530E+02   1.74976076835862727E+02
             1.74969692563301521E+02   1.74962001021775507E+02   1.74952728165554475E+02   1.74941527802568174E+02   1.74928205645530454E+02
             1.74912590207040296E+02   1.74894600980856580E+02   1.74874521004336572E+02   1.74853198040374480E+02   1.74832400339012906E+02
             1.74814985052228536E+02   1.74805074585641506E+02
 ETA=    2   1.99790992276144380E+02   1.99789877263459204E+02   1.99801344770382286E+02   1.99820001085968585E+02   1.99841749974992609E+02
             1.99863874057589101E+02   1.99884739091434710E+02   1.99903516286158407E+02   1.99919887699770186E+02   1.99933878474267402E+02
             1.99945687667532383E+02   1.99955566993613559E+02   1.99963837761663171E+02   1.99970778074377989E+02   1.99976648956205509E+02
             1.99981640917013749E+02   1.99985845780683178E+02   1.99989382061602157E+02   1.99992351562935823E+02   1.99994840123720422E+02
             1.99996920042958124E+02   1.99998652891339788E+02   2.00000091930290012E+02   2.00001283736538198E+02   2.00002268836922582E+02
             2.00003081951459109E+02   2.00003752729197231E+02   2.00004307260035660E+02   2.00004769145736816E+02   2.00005158801296091E+02
             2.00005492760488295E+02   2.00005783848281254E+02   2.00006040304417752E+02   2.00006264380731011E+02   2.00006452332383446E+02
             2.00006596190058161E+02   2.00006686472458284E+02   2.00006714974045593E+02   2.00006677259610910E+02   2.00006574100985517E+02
             2.00006411156573989E+02   2.00006196639985745E+02   2.00005937303031146E+02   2.00005634542443516E+02   2.00005282606799739E+02
             2.00004868557482183E+02   2.00004372540448884E+02   2.00003768228295343E+02   2.00003023876097785E+02   2.00002103495476831E+02
             2.00000967049946325E+02   1.99999569451250039E+02   1.99997859459899303E+02   1.99995778475703816E+02   1.99993257979807709E+02
             1.99990216297801226E+02   1.99986556395396832E+02   1.99982166085974882E+02   1.99976921071995662E+02   1.99970732658278337E+02
             1.99963432448354069E+02   1.99954786296282094E+02   1.99944538702162049E+02   1.99932398858318066E+02   1.99918155760155543E+02
             1.99901637130020106E+02   1.99882793497220405E+02   1.99861888377450470E+02   1.99839724962309049E+02   1.99817959122392836E+02
             1.99799324204864405E+02   1.99787911801973848E+02
 ETA=    3   2.24778851375764361E+02   2.24778771718186192E+02   2.24791194098952758E+02   2.24810627534273351E+02   2.24832995338320529E+02
             2.24855637151864613E+02   2.24876978951082236E+02   2.24896224821607177E+02   2.24913088304338373E+02   2.24927600457516775E+02
             2.24939958028140182E+02   2.24950417195498886E+02   2.24959267475072664E+02   2.24966768956772057E+02   2.24973155103861643E+02
             2.24978603955876025E+02   2.24983228876648525E+02   2.24987144871838069E+02   2.24990453502842826E+02   2.24993242359963034E+02
             2.24995586168141728E+02   2.24997549056581050E+02   2.24999187004714173E+02   2.25000550024386371E+02   2.25001682654218627E+02
             2.25002623025053737E+02   2.25003402959114823E+02   2.25004050301032208E+02   2.25004590684682057E+02   2.25005045931668548E+02
             2.25005432752339203E+02   2.25005764006339120E+02   2.25006048565244271E+02   2.25006289623737928E+02   2.25006484679091585E+02
             2.25006627845119709E+02   2.25006713012050341E+02   2.25006735759472747E+02   2.25006693527684774E+02   2.25006585851750941E+02
             2.25006415148842706E+02   2.25006185573257341E+02   2.25005899717095332E+02   2.25005555664131151E+02   2.25005145877366630E+02
             2.25004657235716195E+02   2.25004070051027753E+02   2.25003356983775319E+02   2.25002484596473124E+02   2.25001415013440266E+02
             2.25000105212712270E+02   2.24998506057599229E+02   2.24996561989846157E+02   2.24994210286356548E+02   2.24991379162089544E+02
             2.24987985410710309E+02   2.24983932691010267E+02   2.24979112354332273E+02   2.24973407125274633E+02   2.24966708153291677E+02
             2.24958858277949901E+02   2.24949648162332494E+02   2.24938836128048052E+02   2.24926158031123720E+02   2.24911388253292728E+02
             2.24894347113455950E+02   2.24874989925826185E+02   2.24853570576108353E+02   2.24830865598049968E+02   2.24808460612249291E+02
             2.24789022130886707E+02   2.24776614177487033E+02
 ETA=    4   2.49772807305044239E+02   2.49773349447990967E+02   2.49786235255346753E+02   2.49805984931140273E+02   2.49828565261913752E+02
             2.49851357615132855E+02   2.49872825773067547E+02   2.49892198905034348E+02   2.49909211096113637E+02   2.49923902700241598E+02
             2.49936472499128598E+02   2.49947177753524670E+02   2.49956290549830271E+02   2.49964057669414018E+02   2.49970694321945842E+02
             2.49976370208591931E+02   2.49981209601986819E+02   2.49985325661816461E+02   2.49988818602760688E+02   2.49991775556279805E+02
             2.49994271419694599E+02   2.49996370835009003E+02   2.49998130465627924E+02   2.49999601280098744E+02   2.50000829052057355E+02
             2.50001853091841440E+02   2.50002706092014364E+02   2.50003416529150087E+02   2.50004010501093887E+02   2.50004510030493776E+02
             2.50004931703678011E+02   2.50005288201328796E+02   2.50005588616539939E+02   2.50005837012463871E+02   2.50006032445038130E+02
             2.50006171210681487E+02   2.50006249844240500E+02   2.50006266432424894E+02   2.50006219606617719E+02   2.50006108124156924E+02
             2.50005932095910509E+02   2.50005692517052665E+02   2.50005388748599387E+02   2.50005016454309555E+02   2.50004566833071863E+02
             2.50004026504358450E+02   2.50003375981991041E+02   2.50002587996711725E+02   2.50001629095207818E+02   2.50000461225144335E+02
             2.49999040572768365E+02   2.49997316787946062E+02   2.49995233068834125E+02   2.49992725559686875E+02   2.49989721994201204E+02
             2.49986140104316263E+02   2.49981886192431034E+02   2.49976855614474999E+02   2.49970935263456454E+02   2.49964006786648469E+02
             2.49955917970388271E+02   2.49946473214531409E+02   2.49935441148607339E+02   2.49922569789767522E+02   2.49907624155146834E+02
             2.49890417433638760E+02   2.49870902410986616E+02   2.49849326131767526E+02   2.49826445833855900E+02   2.49803801140414947E+02
             2.49784011316695654E+02   2.49771096327047871E+02
 ETA=    5   2.74773360356002229E+02   2.74774168688574491E+02   2.74786993335024476E+02   2.74806493164465337E+02   2.74828738649603224E+02
             2.74851175764708501E+02   2.74872309522903095E+02   2.74891392425991057E+02   2.74908170787062772E+02   2.74922688064310478E+02
             2.74935140101444517E+02   2.74945779050468502E+02   2.74954863641498378E+02   2.74962628575558028E+02   2.74969275771947480E+02
             2.74974968314568173E+02   2.74979834142795767E+02   2.74983984569225186E+02   2.74987517367628755E+02   2.74990517565113407E+02
             2.74993058488401459E+02   2.74995203600229615E+02   2.74997008569721743E+02   2.74998523389167133E+02   2.74999792928298518E+02
             2.75000855853325447E+02   2.75001744489661064E+02   2.75002486883581128E+02   2.75003108359558553E+02   2.75003630187800411E+02
             2.75004068490400527E+02   2.75004435555863381E+02   2.75004740356184811E+02   2.75004987589458835E+02   2.75005177783412989E+02
             2.75005309181514690E+02   2.75005380231825654E+02   2.75005390477858327E+02   2.75005339219866812E+02   2.75005224863297656E+02
             2.75005046086105438E+02   2.75004801694829894E+02   2.75004488846345566E+02   2.75004101679991322E+02   2.75003630711202902E+02
             2.75003062497171186E+02   2.75002378040534211E+02   2.75001551126364973E+02   2.75000549608826361E+02   2.74999336608784461E+02
             2.74997869311413808E+02   2.74996098384461732E+02   2.74993968134782619E+02   2.74991415922787553E+02   2.74988371173552196E+02
             2.74984754285762165E+02   2.74980475354900875E+02   2.74975434029810287E+02   2.74969520313587964E+02   2.74962612547991682E+02
             2.74954561354382577E+02   2.74945179938868364E+02   2.74934246355404639E+02   2.74921517354372156E+02   2.74906756865758325E+02
             2.74889777909693464E+02   2.74870534230690794E+02   2.74849268774578775E+02   2.74826719646082836E+02   2.74804380645606955E+02
             2.74784803290607840E+02   2.74771905445098923E+02
 ETA=    6   2.99780887336761168E+02   2.99781654481475300E+02   2.99793865788746132E+02   2.99812468601403282E+02   2.99833727831105705E+02
             2.99855202730344786E+02   2.99875458785585352E+02   2.99893774444332109E+02   2.99909900711183354E+02   2.99923873734368669E+02
             2.99935876626071490E+02   2.99946147866220713E+02   2.99954930561948288E+02   2.99962445697127691E+02   2.99968882992016461E+02
             2.99974398389112082E+02   2.99979118477898055E+02   2.99983151394839410E+02   2.99986591121642732E+02   2.99989519065040668E+02
             2.99992005405140219E+02   2.99994110867811003E+02   2.99995888612868669E+02   2.99997386088304722E+02   2.99998645641972132E+02
             2.99999703834298714E+02   3.00000591441528911E+02   3.00001335065300566E+02   3.00001958325745420E+02   3.00002481014065097E+02
             3.00002918364020843E+02   3.00003282005204483E+02   3.00003580508828691E+02   3.00003818903794468E+02   3.00003998861887453E+02
             3.00004120151680581E+02   3.00004182518950529E+02   3.00004186272456877E+02   3.00004131067699461E+02   3.00004015261209588E+02
             3.00003836785655267E+02   3.00003593138805172E+02   3.00003280219421242E+02   3.00002891446544766E+02   3.00002417242128445E+02
             3.00001844531086590E+02   3.00001155310440140E+02   3.00000325257830355E+02   2.99999324563921391E+02   2.99998118667445965E+02
             2.99996667227831097E+02   2.99994923666595298E+02   2.99992835222234817E+02   2.99990342358302087E+02   2.99987377981431791E+02
             2.99983866592704715E+02   2.99979723067648195E+02   2.99974851921459219E+02   2.99969146735658171E+02   2.99962486562212007E+02
             2.99954725686203858E+02   2.99945685634764857E+02   2.99935155605104455E+02   2.99922904128757409E+02   2.99908704255649752E+02
             2.99892379573540268E+02   2.99873893338958396E+02   2.99853488492366694E+02   2.99831880029215824E+02   2.99810499237834847E+02
             2.99791782637713482E+02   2.99779455211527079E+02
 ETA=    7   3.24795489651387243E+02   3.24795955418384324E+02   3.24807000047932320E+02   3.24824023225882513E+02   3.24843593558006944E+02
             3.24863446724291464E+02   3.24882236938250287E+02   3.24899274778058953E+02   3.24914309662948085E+02   3.24927359160459446E+02
             3.24938582095933782E+02   3.24948193386611706E+02   3.24956414795630224E+02   3.24963449794141980E+02   3.24969474199561205E+02
             3.24974634638548423E+02   3.24979052348599964E+02   3.24982830148829521E+02   3.24986056538669686E+02   3.24988807704305600E+02
             3.24991149104900558E+02   3.24993137212239333E+02   3.24994821248608048E+02   3.24996244780856784E+02   3.24997446371033391E+02
             3.24998459287088679E+02   3.24999311668787584E+02   3.25000027741894598E+02   3.25000628708443458E+02   3.25001132319194596E+02
             3.25001552466534122E+02   3.25001899814945375E+02   3.25002182285690253E+02   3.25002404917212687E+02   3.25002570106397684E+02
             3.25002678670849150E+02   3.25002731173602513E+02   3.25002728293419750E+02   3.25002669891975643E+02   3.25002554470753807E+02
             3.25002379720720796E+02   3.25002142554928412E+02   3.25001838403107229E+02   3.25001460652268804E+02   3.25001000201779789E+02
             3.25000444896606950E+02   3.24999778340798741E+02   3.24998978811356380E+02   3.24998019659444026E+02   3.24996869642610250E+02
             3.24995492116474907E+02   3.24993844632013861E+02   3.24991878833483270E+02   3.24989539862235915E+02   3.24986765666172175E+02
             3.24983486221502915E+02   3.24979622313038192E+02   3.24975084366575459E+02   3.24969771031803873E+02   3.24963565449735484E+02
             3.24956328201255474E+02   3.24947891473701247E+02   3.24938059498979669E+02   3.24926618997816092E+02   3.24913363208252292E+02
             3.24898138334361079E+02   3.24880927230287512E+02   3.24861977063132599E+02   3.24841972564420871E+02   3.24822255588716189E+02
             3.24805085284747236E+02   3.24793883779462249E+02
 ETA=    8   3.49816965530381708E+02   3.49816923806196769E+02   3.49826280413932579E+02   3.49841053391591004E+02   3.49858230992112397E+02
             3.49875794736667274E+02   3.49892520909999234E+02   3.49907761879616714E+02   3.49921261611257535E+02   3.49933009099934509E+02
             3.49943127578700171E+02   3.49951798249481328E+02   3.49959214182617416E+02   3.49965556070636467E+02   3.49970982279816496E+02
             3.49975626818481544E+02   3.49979601851679490E+02   3.49983002261953288E+02   3.49985909053846001E+02   3.49988391434130847E+02
             3.49990508507082097E+02   3.49992310981189689E+02   3.49993842778341843E+02   3.49995142399814824E+02   3.49996243581200872E+02
             3.49997175309806948E+02   3.49997962127838946E+02   3.49998625067855812E+02   3.49999182343066479E+02   3.49999649216870353E+02
             3.50000037819438489E+02   3.50000357540699383E+02   3.50000615417053382E+02   3.50000816191810316E+02   3.50000962576532174E+02
             3.50001055996433308E+02   3.50001097473643483E+02   3.50001087854078946E+02   3.50001027159572629E+02   3.50000914160471496E+02
             3.50000746659717549E+02   3.50000521537854979E+02   3.50000234369594523E+02   3.49999879076602781E+02   3.49999447560050896E+02
             3.49998929156648785E+02   3.49998309695243563E+02   3.49997570656548589E+02   3.49996689238855595E+02   3.49995638391164277E+02
             3.49994386184949121E+02   3.49992895429618045E+02   3.49991123424436864E+02   3.49989021358334355E+02   3.49986533650225397E+02
             3.49983597164607318E+02   3.49980139974299959E+02   3.49976079945899698E+02   3.49971322971560539E+02   3.49965759709925464E+02
             3.49959260756499759E+02   3.49951673019840825E+02   3.49942821195556633E+02   3.49932518093985664E+02   3.49920588107468234E+02
             3.49906911652150086E+02   3.49891500473932865E+02   3.49874608635503307E+02   3.49856880269831720E+02   3.49839534991120843E+02
             3.49824585489208744E+02   3.49815034281529563E+02
 ETA=    9   3.74844811327235504E+02   3.74844120513521375E+02   3.74851333014191994E+02   3.74863241144644178E+02   3.74877365417987392E+02
             3.74892002973416652E+02   3.74906088208851429E+02   3.74919028497251531E+02   3.74930561942666998E+02   3.74940641671472406E+02
             3.74949345625253841E+02   3.74956811795406452E+02   3.74963196742968933E+02   3.74968652283045913E+02   3.74973314665519467E+02
             3.74977301250840526E+02   3.74980711383330515E+02   3.74983629102981865E+02   3.74986125656602098E+02   3.74988261363586673E+02
             3.74990087279245188E+02   3.74991646851412781E+02   3.74992977409901528E+02   3.74994111325056735E+02   3.74995076614895652E+02
             3.74995897148887025E+02   3.74996593050088563E+02   3.74997181468310714E+02   3.74997677162110961E+02   3.74998092550488934E+02
             3.74998437651826578E+02   3.74998720304729716E+02   3.74998946445844751E+02   3.74999120258917060E+02   3.74999244422635059E+02
             3.74999320608778419E+02   3.74999350042574974E+02   3.74999333642699526E+02   3.74999271598990561E+02   3.74999163034177855E+02
             3.74999006098658128E+02   3.74998798028542751E+02   3.74998534990271423E+02   3.74998211882065505E+02   3.74997822054998551E+02
             3.74997356854717395E+02   3.74996804890505985E+02   3.74996151366039442E+02   3.74995377910592197E+02   3.74994462410275275E+02
             3.74993378507810803E+02   3.74992095228220592E+02   3.74990576620181571E+02   3.74988781148624128E+02   3.74986661056722710E+02
             3.74984161577684006E+02   3.74981219695872255E+02   3.74977762655050583E+02   3.74973706227896855E+02   3.74968952252039401E+02
             3.74963385700429058E+02   3.74956873254584991E+02   3.74949266377229094E+02   3.74940412215438243E+02   3.74930176362816155E+02
             3.74918483336197653E+02   3.74905380684159979E+02   3.74891129077130245E+02   3.74876318363773180E+02   3.74862010003261958E+02
             3.74849900500246463E+02   3.74842459465512263E+02
 ETA=   10   3.99878235998585978E+02   3.99876829135274079E+02   3.99881536111445314E+02   3.99890058500747273E+02   3.99900550315398448E+02
             3.99911690048680384E+02   3.99922607213385334E+02   3.99932780900320154E+02   3.99941947083307696E+02   3.99950019324485083E+02
             3.99957023077140320E+02   3.99963044992882374E+02   3.99968197601953989E+02   3.99972597456256551E+02   3.99976353457023095E+02
             3.99979561886663589E+02   3.99982305444220117E+02   3.99984654273686999E+02   3.99986667455734391E+02   3.99988394425763431E+02
             3.99989876473359402E+02   3.99991148329530631E+02   3.99992239536022680E+02   3.99993175387129156E+02   3.99993977417254143E+02
             3.99994663672976515E+02   3.99995249179559892E+02   3.99995746646702855E+02   3.99996167008557052E+02   3.99996519569565066E+02
             3.99996811978739856E+02   3.99997050307432971E+02   3.99997239215376112E+02   3.99997382120726400E+02   3.99997481409826150E+02
             3.99997538736216541E+02   3.99997555354981330E+02   3.99997532219684444E+02   3.99997469718892830E+02   3.99997367384771678E+02
             3.99997223853298976E+02   3.99997036955567069E+02   3.99996803744203589E+02   3.99996520407346736E+02   3.99996182089097260E+02
             3.99995782558938515E+02   3.99995313661509101E+02   3.99994764759097848E+02   3.99994122401485015E+02   3.99993370027398612E+02
             3.99992487562932922E+02   3.99991451072146958E+02   3.99990232321897452E+02   3.99988798162116211E+02   3.99987109944731628E+02
             3.99985122794976064E+02   3.99982784409819317E+02   3.99980033623905854E+02   3.99976799007472778E+02   3.99972997419433000E+02
             3.99968532898668514E+02   3.99963297422561425E+02   3.99957175818487485E+02   3.99950057424030319E+02   3.99941857530579341E+02
             3.99932552076966658E+02   3.99922227910639265E+02   3.99911148195967144E+02   3.99899831482555555E+02   3.99889144035257345E+02
             3.99880400356155121E+02   3.99875435379095848E+02
 ETA=   11   4.24916184968938069E+02   4.24914076718426145E+02   4.24916034449710423E+02   4.24920774367824492E+02   4.24927167727166591E+02
             4.24934332642391951E+02   4.24941630154242091E+02   4.24948630897617363E+02   4.24955076803612883E+02   4.24960842226897682E+02
             4.24965895952661185E+02   4.24970267005093660E+02   4.24974017159502637E+02   4.24977221467161712E+02   4.24979956113031108E+02
             4.24982291767723723E+02   4.24984290678850357E+02   4.24986006033255023E+02   4.24987482319092237E+02   4.24988756095808242E+02
             4.24989857212200718E+02   4.24990810317696855E+02   4.24991636107207512E+02   4.24992352000809262E+02   4.24992972418528097E+02
             4.24993509015300845E+02   4.24993971187435363E+02   4.24994366784561919E+02   4.24994702651858802E+02   4.24994984805485331E+02
             4.24995218371032479E+02   4.24995407517308251E+02   4.24995555507198560E+02   4.24995664860173520E+02   4.24995737509358378E+02
             4.24995774921531961E+02   4.24995778275305668E+02   4.24995748551432371E+02   4.24995686374362947E+02   4.24995591719243123E+02
             4.24995463759034635E+02   4.24995301025119886E+02   4.24995101612737358E+02   4.24994863180873836E+02   4.24994582879765858E+02
             4.24994257183838272E+02   4.24993881504161095E+02   4.24993449704153193E+02   4.24992953641181430E+02   4.24992382783016978E+02
             4.24991723911680367E+02   4.24990960829385301E+02   4.24990073863497287E+02   4.24989039223067550E+02   4.24987828549820733E+02
             4.24986408364141539E+02   4.24984738950139104E+02   4.24982773069565894E+02   4.24980455100679308E+02   4.24977720791470460E+02
             4.24974497982536548E+02   4.24970709538149777E+02   4.24966280084733626E+02   4.24961148129479113E+02   4.24955285183525405E+02
             4.24948722851573677E+02   4.24941586830162123E+02   4.24934134532334099E+02   4.24926793247207229E+02   4.24920197573007101E+02
             4.24915221627053995E+02   4.24912981524995018E+02
 ETA=   12   4.49957370841240106E+02   4.49954659572739558E+02   4.49953757228686186E+02   4.49954464314870847E+02   4.49956431237745676E+02
             4.49959263791059982E+02   4.49962588775546010E+02   4.49966090515545659E+02   4.49969529064657252E+02   4.49972743990186359E+02
             4.49975646408858211E+02   4.49978203513051369E+02   4.49980420700707896E+02   4.49982325755635941E+02   4.49983957005513673E+02
             4.49985355173464200E+02   4.49986558441551438E+02   4.49987600127558494E+02   4.49988507828636955E+02   4.49989303358830909E+02
             4.49990003580387508E+02   4.49990621857679855E+02   4.49991169175087521E+02   4.49991654471952074E+02   4.49992084590252830E+02
             4.49992464382759749E+02   4.49992797246870850E+02   4.49993085902852158E+02   4.49993332966835851E+02   4.49993541103770553E+02
             4.49993712872245851E+02   4.49993850496405685E+02   4.49993955795410386E+02   4.49994030341673465E+02   4.49994075557794304E+02
             4.49994092645746832E+02   4.49994082657231957E+02   4.49994046612605985E+02   4.49993985407932200E+02   4.49993899468234247E+02
             4.49993788471681455E+02   4.49993651632254000E+02   4.49993488118306061E+02   4.49993297105283887E+02   4.49993077811458079E+02
             4.49992829539253023E+02   4.49992551455146497E+02   4.49992242157274461E+02   4.49991899077051812E+02   4.49991518031373573E+02
             4.49991093080466840E+02   4.49990616328777776E+02   4.49990077355599738E+02   4.49989462520477048E+02   4.49988754760212942E+02
             4.49987933377232991E+02   4.49986973061586809E+02   4.49985842791641915E+02   4.49984505663205880E+02   4.49982920001308571E+02
             4.49981041949227006E+02   4.49978830577885219E+02   4.49976256254769339E+02   4.49973312476751062E+02   4.49970031311775074E+02
             4.49966501019672137E+02   4.49962881688393338E+02   4.49959412858035876E+02   4.49956408479553033E+02   4.49954237256819738E+02
             4.49953284771557264E+02   4.49953886104015396E+02
 ETA=   13   4.75000308264026614E+02   4.74997172542496003E+02   4.74993439047543404E+02   4.74990023090403952E+02   4.74987391673732077E+02
             4.74985673939746221E+02   4.74984792766372038E+02   4.74984569390512206E+02   4.74984797458132448E+02   4.74985289810862469E+02
             4.74985901896856319E+02   4.74986536972005581E+02   4.74987139669419037E+02   4.74987685415625833E+02   4.74988170100797561E+02
             4.74988600701977191E+02   4.74988988132877239E+02   4.74989343250484580E+02   4.74989674749331584E+02   4.74989988091045802E+02
             4.74990285848252370E+02   4.74990569149317935E+02   4.74990838671333393E+02   4.74991094512900190E+02   4.74991335685057265E+02
             4.74991560022969679E+02   4.74991764744976422E+02   4.74991947348988276E+02   4.74992106232062952E+02   4.74992240769145099E+02
             4.74992351020356864E+02   4.74992437321622901E+02   4.74992500085346080E+02   4.74992539983033453E+02   4.74992557976436615E+02
             4.74992555009303828E+02   4.74992532006652368E+02   4.74992490060371267E+02   4.74992430367148359E+02   4.74992353774310345E+02
             4.74992260350874744E+02   4.74992149862658209E+02   4.74992022466817104E+02   4.74991878765022136E+02   4.74991719936751167E+02
             4.74991548054507405E+02   4.74991366066994658E+02   4.74991177410899809E+02   4.74990985212144665E+02   4.74990791775157220E+02
             4.74990598690175716E+02   4.74990406767485865E+02   4.74990215332895787E+02   4.74990021430300658E+02   4.74989820017225384E+02
             4.74989604320777062E+02   4.74989365047949150E+02   4.74989089459930597E+02   4.74988761982573465E+02   4.74988366795255388E+02
             4.74987892291437220E+02   4.74987338483952556E+02   4.74986726730648115E+02   4.74986110066619119E+02   4.74985583271274095E+02
             4.74985289138507824E+02   4.74985414054680859E+02   4.74986164484556696E+02   4.74987718170595599E+02   4.74990147731381342E+02
             4.74993314491588933E+02   4.74996734760960294E+02
 ETA=   14   5.00043349951235257E+02   5.00040039810924554E+02   5.00033642882974107E+02   5.00026179581202200E+02   5.00018945522109902E+02
             5.00012614863002455E+02   5.00007431094821470E+02   5.00003375002692394E+02   5.00000291365553039E+02   4.99997977169285377E+02
             4.99996236673368912E+02   4.99994908999299412E+02   4.99993874835171653E+02   4.99993052907670972E+02   4.99992393002367066E+02
             4.99991865508886690E+02   4.99991451521073259E+02   4.99991137335045892E+02   4.99990911182005561E+02   4.99990760989951184E+02
             4.99990674130871696E+02   4.99990638916843125E+02   4.99990645468780940E+02   4.99990684986460224E+02   4.99990748656150345E+02
             4.99990827326420344E+02   4.99990912095035299E+02   4.99990995362245314E+02   4.99991071495374399E+02   4.99991136771953904E+02
             4.99991188926395239E+02   4.99991226557993230E+02   4.99991248800122492E+02   4.99991255572148759E+02   4.99991247532969624E+02
             4.99991225456764255E+02   4.99991190195123067E+02   4.99991142967131736E+02   4.99991085283486427E+02   4.99991018337301284E+02
             4.99990942394708554E+02   4.99990857544506696E+02   4.99990764744454395E+02   4.99990665799515682E+02   4.99990563563179421E+02
             4.99990462615834417E+02   4.99990369527058533E+02   4.99990292516310774E+02   4.99990240346154849E+02   4.99990221737434581E+02
             4.99990245868039665E+02   4.99990322457571040E+02   4.99990460806459112E+02   4.99990668824427473E+02   4.99990953808334837E+02
             4.99991323644734791E+02   4.99991786279449457E+02   4.99992348920169832E+02   4.99993019458561093E+02   4.99993810561942212E+02
             4.99994745868922621E+02   4.99995870156090973E+02   4.99997260276459542E+02   4.99999032129191448E+02   5.00001343389089811E+02
             5.00004386613979193E+02   5.00008363511453183E+02   5.00013430472031359E+02   5.00019607186922315E+02   5.00026645959742041E+02
             5.00033862171906549E+02   5.00039940914728447E+02
 ETA=   15   5.25084720529188985E+02   5.25081544977005933E+02   5.25072783944192679E+02   5.25061513804840388E+02   5.25049846048540076E+02
             5.25039006584379877E+02   5.25029576400851624E+02   5.25021715890560017E+02   5.25015338963170052E+02   5.25010239224544193E+02
             5.25006175825939522E+02   5.25002925081733679E+02   5.25000301576548168E+02   5.24998163618557442E+02   5.24996412569905033E+02
             5.24994980914776079E+02   5.24993818250042636E+02   5.24992884857211720E+02   5.24992147553273753E+02   5.24991576169020277E+02
             5.24991142561650122E+02   5.24990822172810681E+02   5.24990594748245144E+02   5.24990442876484281E+02   5.24990350231815114E+02
             5.24990301020932179E+02   5.24990280593508032E+02   5.24990276654727950E+02   5.24990279940498112E+02   5.24990283951356560E+02
             5.24990284350160778E+02   5.24990278230580770E+02   5.24990263670600598E+02   5.24990240094191563E+02   5.24990208118114879E+02
             5.24990168521714281E+02   5.24990122202321004E+02   5.24990070589629227E+02   5.24990015486803372E+02   5.24989958283027590E+02
             5.24989899181936948E+02   5.24989838297660526E+02   5.24989777106390875E+02   5.24989718268107822E+02   5.24989665843909393E+02
             5.24989626436389699E+02   5.24989609851361706E+02   5.24989628825753243E+02   5.24989697482263409E+02   5.24989830660388066E+02
             5.24990044967579820E+02   5.24990358974674336E+02   5.24990791818094976E+02   5.24991361996613705E+02   5.24992088918499348E+02
             5.24992995249145451E+02   5.24994106778829064E+02   5.24995451741564807E+02   5.24997063018080325E+02   5.24998983562708304E+02
             5.25001273750375617E+02   5.25004025621481105E+02   5.25007375441936006E+02   5.25011504279115684E+02   5.25016631336616001E+02
             5.25022992319978925E+02   5.25030791439010386E+02   5.25040117867090657E+02   5.25050814684991906E+02   5.25062297584216594E+02
             5.25073329259001753E+02   5.25081775414385447E+02
 ETA=   16   5.50122544483280990E+02   5.50119857681593317E+02   5.50109152977197823E+02   5.50094475469748431E+02   5.50078717134557678E+02
             5.50063647457551497E+02   5.50050192592003668E+02   5.50038707930561031E+02   5.50029193120975833E+02   5.50021450974362892E+02
             5.50015201915620082E+02   5.50010161746889935E+02   5.50006077476426071E+02   5.50002743473831401E+02   5.50000012320602877E+02
             5.49997779599329192E+02   5.49995962741994163E+02   5.49994495334888597E+02   5.49993322588509500E+02   5.49992396520665011E+02
             5.49991674042861746E+02   5.49991118405785983E+02   5.49990699665465399E+02   5.49990392452028459E+02   5.49990173590947734E+02
             5.49990021390401466E+02   5.49989916245781160E+02   5.49989841927883958E+02   5.49989786172315235E+02   5.49989740133106011E+02
             5.49989697696204416E+02   5.49989654728186110E+02   5.49989608574834051E+02   5.49989558527797271E+02   5.49989505505375178E+02
             5.49989450567328959E+02   5.49989394867412898E+02   5.49989340152154682E+02   5.49989288424680694E+02   5.49989241014247341E+02
             5.49989197769264024E+02   5.49989158515858890E+02   5.49989124879821816E+02   5.49989099913252858E+02   5.49989088265855344E+02
             5.49989097851232600E+02   5.49989141056439735E+02   5.49989234573303406E+02   5.49989397340759069E+02   5.49989649807211549E+02
             5.49990015617394988E+02   5.49990521772393436E+02   5.49991196599715977E+02   5.49992068345796611E+02   5.49993167617595418E+02
             5.49994531102298652E+02   5.49996202125195623E+02   5.49998230249166227E+02   5.50000674189138181E+02   5.50003608090274042E+02
             5.50007128243434522E+02   5.50011374542644717E+02   5.50016546482372064E+02   5.50022891909757504E+02   5.50030689283752281E+02
             5.50040210243790398E+02   5.50051648060231173E+02   5.50065009162264005E+02   5.50079947246131155E+02   5.50095534850020613E+02
             5.50109990163113480E+02   5.50120392812469390E+02
 ETA=   17   5.75154862861717902E+02   5.75153052252591237E+02   5.75140936137935682E+02   5.75123402682226924E+02   5.75104069226704837E+02
             5.75085227098061523E+02   5.75068145370600064E+02   5.75053383388270390E+02   5.75041039909954065E+02   5.75030937996516741E+02
             5.75022764178794432E+02   5.75016176229027565E+02   5.75010852342220915E+02   5.75006518777629253E+02   5.75002981842688200E+02
             5.75000104648725255E+02   5.74997772741571339E+02   5.74995893220057724E+02   5.74994390415002499E+02   5.74993199950012126E+02
             5.74992265628467976E+02   5.74991540194689378E+02   5.74990985273063757E+02   5.74990568545841711E+02   5.74990261043636565E+02
             5.74990036419487978E+02   5.74989871465202782E+02   5.74989747229107820E+02   5.74989649320929630E+02   5.74989567057876570E+02
             5.74989492829967730E+02   5.74989421554523801E+02   5.74989350262088919E+02   5.74989278562450522E+02   5.74989208064741547E+02
             5.74989140510391053E+02   5.74989077644217900E+02   5.74989021631131891E+02   5.74988974456947858E+02   5.74988937001198451E+02
             5.74988908489335813E+02   5.74988888209003107E+02   5.74988877487923332E+02   5.74988879207264631E+02   5.74988897900698021E+02
             5.74988941893025412E+02   5.74989025167155319E+02   5.74989167370020255E+02   5.74989391392314133E+02   5.74989722632371468E+02
             5.74990191117974973E+02   5.74990831330021592E+02   5.74991679455658186E+02   5.74992771982425211E+02   5.74994148987690664E+02
             5.74995859231250392E+02   5.74997961954848279E+02   5.75000527337510789E+02   5.75003640091906163E+02   5.75007405760828306E+02
             5.75011952257801340E+02   5.75017465116833819E+02   5.75024211725221903E+02   5.75032508023243963E+02   5.75042689467610217E+02
             5.75055057772822238E+02   5.75069782503462307E+02   5.75086774762785581E+02   5.75105494155249971E+02   5.75124674669178603E+02
             5.75142011812046462E+02   5.75153849761952642E+02
 ETA=   18   6.00179621518858994E+02   6.00179101048564462E+02   6.00166216700406608E+02   6.00146529565046080E+02   6.00124309150072008E+02
             6.00102336149102484E+02   6.00082211297464937E+02   6.00064699542318976E+02   6.00050007443325967E+02   6.00037986310098745E+02
             6.00028289495601484E+02   6.00020518221463476E+02   6.00014280456416259E+02   6.00009228356255448E+02   6.00005128538854137E+02
             6.00001820841711606E+02   5.99999159836563649E+02   5.99997027415987418E+02   5.99995328947226767E+02   5.99993986589828410E+02
             5.99992934599107457E+02   5.99992118227730657E+02   5.99991492593583530E+02   5.99991019795778698E+02   5.99990666559069155E+02
             5.99990403730108710E+02   5.99990206535806465E+02   5.99990055043639586E+02   5.99989933849449358E+02   5.99989830990542032E+02
             5.99989737582731436E+02   5.99989647817508967E+02   5.99989558880458276E+02   5.99989471183339674E+02   5.99989387416320710E+02
             5.99989310549836773E+02   5.99989243387952115E+02   5.99989188548585162E+02   5.99989147603916649E+02   5.99989120476151129E+02
             5.99989105602828886E+02   5.99989101628756316E+02   5.99989109084089591E+02   5.99989130046134051E+02   5.99989168255136406E+02
             5.99989231453820707E+02   5.99989333842370229E+02   5.99989496416659904E+02   5.99989744788667167E+02   5.99990108578561831E+02
             5.99990623204513099E+02   5.99991328904466172E+02   5.99992267506954818E+02   5.99993481462113095E+02   5.99995017630697589E+02
             5.99996933361593847E+02   5.99999300406260431E+02   6.00002207474034549E+02   6.00005764704021317E+02   6.00010109050648111E+02
             6.00015390838318012E+02   6.00021834983813164E+02   6.00029783589692556E+02   6.00039622010600738E+02   6.00051741750802080E+02
             6.00066473195511776E+02   6.00083951482563521E+02   6.00103982650524244E+02   6.00125836735835378E+02   6.00147925686581743E+02
             6.00167455095447508E+02   6.00180098240786947E+02
 ETA=   19   6.25194538286700549E+02   6.25195744194054669E+02   6.25182866355030683E+02   6.25161904378361669E+02   6.25137681654209473E+02
             6.25113426433637414E+02   6.25091052480355756E+02   6.25071524581530639E+02   6.25055160669831366E+02   6.25041844640244335E+02
             6.25031190275811582E+02   6.25022741082105654E+02   6.25016033528114122E+02   6.25010637590293072E+02   6.25006292130839483E+02
             6.25002828756594795E+02   6.25000072430842920E+02   6.24997882696794022E+02   6.24996149701061654E+02   6.24994787105974524E+02
             6.24993725291294481E+02   6.24992906668588375E+02   6.24992282651561368E+02   6.24991811587033453E+02   6.24991457893581924E+02
             6.24991192131848265E+02   6.24990990721995331E+02   6.24990835018817279E+02   6.24990709941487239E+02   6.24990602854440226E+02
             6.24990503774451327E+02   6.24990406305322267E+02   6.24990308195347097E+02   6.24990211065577682E+02   6.24990119044676021E+02
             6.24990036981316393E+02   6.24989969255177584E+02   6.24989918815206579E+02   6.24989886249615324E+02   6.24989870017343947E+02
             6.24989867774978279E+02   6.24989877602220758E+02   6.24989898768429839E+02   6.24989931932153922E+02   6.24989979525353192E+02
             6.24990047762534573E+02   6.24990149277207706E+02   6.24990304126570436E+02   6.24990539022433268E+02   6.24990886953959716E+02
             6.24991387189693114E+02   6.24992082957030675E+02   6.24993018454575008E+02   6.24994238882256582E+02   6.24995794023828353E+02
             6.24997744516869489E+02   6.25000168952849549E+02   6.25003170478702941E+02   6.25006882894449063E+02   6.25011474702835699E+02
             6.25017103357837186E+02   6.25024021528629874E+02   6.25032655381414088E+02   6.25043460639439559E+02   6.25056886557278858E+02
             6.25073299712468838E+02   6.25092793453555942E+02   6.25115059057971280E+02   6.25139190199332006E+02   6.25163306390388470E+02
             6.25184165789900135E+02   6.25196855124548392E+02
 ETA=   20   6.50196403021289257E+02   6.50199753923978847E+02   6.50187861571357871E+02   6.50166811635836780E+02   6.50141813986758507E+02
             6.50116473538318132E+02   6.50092981907599210E+02   6.50072484399760924E+02   6.50055409439387972E+02   6.50041676358056179E+02
             6.50030845562811919E+02   6.50022399848222449E+02   6.50015807478600664E+02   6.50010551702537327E+02   6.50006362027791397E+02
             6.50003082402714540E+02   6.50000511731249617E+02   6.49998493296964284E+02   6.49996909115971221E+02   6.49995672122142309E+02
             6.49994716674465167E+02   6.49993988736272627E+02   6.49993440153239249E+02   6.49993028285653281E+02   6.49992717952653607E+02
             6.49992482547380632E+02   6.49992302899061542E+02   6.49992164233492304E+02   6.49992053351243385E+02   6.49991957718021695E+02
             6.49991866538351474E+02   6.49991772921639608E+02   6.49991675322366746E+02   6.49991576724255310E+02   6.49991482958077313E+02
             6.49991401262850900E+02   6.49991337871087353E+02   6.49991295720265384E+02   6.49991273859470652E+02   6.49991269051713743E+02
             6.49991278363996003E+02   6.49991299505500592E+02   6.49991330254040804E+02   6.49991369465233902E+02   6.49991418003472972E+02
             6.49991479778393682E+02   6.49991563870332357E+02   6.49991686713774016E+02   6.49991874075215151E+02   6.49992160821045104E+02
             6.49992587497777663E+02   6.49993196330992532E+02   6.49994029501420869E+02   6.49995130514380094E+02   6.49996546710667758E+02
             6.49998334845355885E+02   6.50000572113457110E+02   6.50003368771702412E+02   6.50006877429048586E+02   6.50011296433157099E+02
             6.50016769504003605E+02   6.50023558930986496E+02   6.50032181081823751E+02   6.50043158415287962E+02   6.50057000245879749E+02
             6.50074129270150479E+02   6.50094592234581683E+02   6.50117952048367897E+02   6.50143151137794803E+02   6.50168069234921290E+02
             6.50189090006843344E+02   6.50200865346743626E+02
 ETA=   21   6.75178339062581017E+02   6.75183953674799682E+02   6.75174403730303084E+02   6.75155249100557967E+02   6.75131673647010075E+02
             6.75107434927776012E+02   6.75084876823538252E+02   6.75065245765924374E+02   6.75049068875310240E+02   6.75036310622298402E+02
             6.75026472839935423E+02   6.75018992983891735E+02   6.75013301134776157E+02   6.75008819145975053E+02   6.75005295702771377E+02
             6.75002610661469589E+02   6.75000551000798623E+02   6.74998958624120064E+02   6.74997721147779430E+02   6.74996762432914011E+02
             6.74996030339542017E+02   6.74995482154687579E+02   6.74995076375585768E+02   6.74994774234306306E+02   6.74994544898757567E+02
             6.74994367970569556E+02   6.74994231527097327E+02   6.74994126940858791E+02   6.74994044639879235E+02   6.74993973479180795E+02
             6.74993902682527278E+02   6.74993825127187620E+02   6.74993739698334139E+02   6.74993650386802074E+02   6.74993564561427547E+02
             6.74993491574674067E+02   6.74993439000809417E+02   6.74993409282236030E+02   6.74993399906860418E+02   6.74993406383890601E+02
             6.74993425516247953E+02   6.74993454828804488E+02   6.74993490889387544E+02   6.74993530924472338E+02   6.74993574216567026E+02
             6.74993621872706058E+02   6.74993677978391474E+02   6.74993753189147355E+02   6.74993869681410274E+02   6.74994060739790029E+02
             6.74994363623565164E+02   6.74994814288727298E+02   6.74995447420267737E+02   6.74996298744479873E+02   6.74997406032286790E+02
             6.74998813551369381E+02   6.75000586265384868E+02   6.75002828415218801E+02   6.75005697229627572E+02   6.75009407875430384E+02
             6.75014067135486243E+02   6.75019918851942634E+02   6.75027545435907655E+02   6.75037506204918714E+02   6.75050352177925220E+02
             6.75066582238111550E+02   6.75086184385753086E+02   6.75108589530585164E+02   6.75132665050885862E+02   6.75156185723410204E+02
             6.75175392641024814E+02   6.75184915430627825E+02
