*
* Deltares, Delft3D-RGFGRID Version 4.17.04.10532, Feb 12 2010, 11:21:30
* File creation date: 2011-02-02, 14:27:56
*
Coordinate System = Cartesian
     261      26
 0 0 0
 ETA=    1   1.00000000000000000E+02   2.00000000000000000E+02   3.00000000000000000E+02   4.00000000000000000E+02   5.00000000000000000E+02
             6.00000000000000000E+02   7.00000000000000000E+02   8.00000000000000000E+02   9.00000000000000000E+02   1.00000000000000000E+03
             1.10000000000000000E+03   1.20000000000000000E+03   1.30000000000000000E+03   1.40000000000000000E+03   1.50000000000000000E+03
             1.60000000000000000E+03   1.70000000000000000E+03   1.80000000000000000E+03   1.90000000000000000E+03   2.00000000000000000E+03
             2.10000000000000000E+03   2.20000000000000000E+03   2.30000000000000000E+03   2.40000000000000000E+03   2.50000000000000000E+03
             2.60000000000000000E+03   2.70000000000000000E+03   2.80000000000000000E+03   2.90000000000000000E+03   3.00000000000000000E+03
             3.10000000000000000E+03   3.20000000000000000E+03   3.30000000000000000E+03   3.40000000000000000E+03   3.50000000000000000E+03
             3.60000000000000000E+03   3.70000000000000000E+03   3.80000000000000000E+03   3.90000000000000000E+03   4.00000000000000000E+03
             4.10000000000000000E+03   4.20000000000000000E+03   4.30000000000000000E+03   4.40000000000000000E+03   4.50000000000000000E+03
             4.60000000000000000E+03   4.70000000000000000E+03   4.80000000000000000E+03   4.90000000000000000E+03   5.00000000000000000E+03
             5.10000000000000000E+03   5.20000000000000000E+03   5.30000000000000000E+03   5.40000000000000000E+03   5.50000000000000000E+03
             5.60000000000000000E+03   5.69999999999932425E+03   5.79999999999510692E+03   5.89999999997045779E+03   5.99999999984744409E+03
             6.09999999931748152E+03   6.19999999732572178E+03   6.29999999073475556E+03   6.39999997136713409E+03   6.49999992041434325E+03
             6.59999979942039226E+03   6.69999953790462041E+03   6.79999901888249406E+03   6.89999806408893164E+03   6.99999641918779707E+03
             7.09999373417781408E+03   7.19998952371234191E+03   7.29998307230455430E+03   7.39997321158639897E+03   7.49995782318551665E+03
             7.59993278248329898E+03   7.69988982207761364E+03   7.79981244537687417E+03   7.89966860885065853E+03   7.99939857199891685E+03
             8.09889636706646161E+03   8.19798412347045451E+03   8.29638029931379606E+03   8.39366577290888017E+03   8.48926443136824128E+03
             8.58240476524555743E+03   8.67215590852771857E+03   8.75748026214853235E+03   8.83732624798421602E+03   8.91077468664201842E+03
             8.97715161283286398E+03   9.03618183358567694E+03   9.08804094421788977E+03   9.13332793040965043E+03   9.17297343015455226E+03
             9.20807656623207913E+03   9.23974024022297272E+03   9.26894611818472004E+03   9.29648917161113604E+03   9.32296176844921320E+03
             9.34877999072424609E+03   9.37421919941846681E+03   9.39944755660603187E+03   9.42456695849030984E+03   9.44963095773302121E+03
             9.47466974407787347E+03   9.49969826347826893E+03   9.52472116277197347E+03   9.54974335650855210E+03   9.57476299925435342E+03
             9.59978175425083646E+03   9.62479964418141026E+03   9.64981663184412355E+03   9.67483268653521918E+03   9.69984779945536866E+03
             9.72486198045209312E+03   9.74987525190608721E+03   9.77488764572770560E+03   9.79989920297328717E+03   9.82490997329444690E+03
             9.84992001282641104E+03   9.87492938128034257E+03   9.89993813942653833E+03   9.92494634712727384E+03   9.94995406144665139E+03
             9.97496133490446300E+03   9.99996821490677394E+03   1.00249747459114860E+04   1.00499809755296774E+04   1.00749869640784564E+04
             1.00999927942328486E+04   1.01249985752502253E+04   1.01500044373786386E+04   1.01750105168666414E+04   1.02000169373845474E+04
             1.02250237957948630E+04   1.02500311578550409E+04   1.02750390644988602E+04   1.03000475447218942E+04   1.03250566289003418E+04
             1.03500663573522634E+04   1.03750767822371909E+04   1.04000879642453056E+04   1.04250999669139474E+04   1.04501128507015292E+04
             1.04751266676331052E+04   1.05001414566204567E+04   1.05251572395062831E+04   1.05501740183002967E+04   1.05751917753741473E+04
             1.06002104813147071E+04   1.06252301213207702E+04   1.06502507660219544E+04   1.06752742641114346E+04   1.07002986000041801E+04
             1.07253288855357878E+04   1.07503697065170672E+04   1.07754360033372977E+04   1.08005580121758121E+04   1.08257889909028454E+04
             1.08512285954753297E+04   1.08770484013163605E+04   1.09035209973654983E+04   1.09310644536570126E+04   1.09602717065936868E+04
             1.09919381241151223E+04   1.10270430341499559E+04   1.10666909403975824E+04   1.11119818793436407E+04   1.11638384549664625E+04
             1.12228661350587136E+04   1.12892446396643008E+04   1.13626887824601454E+04   1.14425318752255189E+04   1.15278585201738260E+04
             1.16176040287641154E+04   1.17107398591228248E+04   1.18063275617706695E+04   1.19036117520277930E+04   1.20020071905856075E+04
             1.21010947170641830E+04   1.22005926890473329E+04   1.23003230702133169E+04   1.24001797083688252E+04   1.25001027388332568E+04
             1.26000601134149474E+04   1.27000354423672215E+04   1.28000205997407265E+04   1.29000115405899651E+04   1.30000061111322320E+04
             1.31000030107590919E+04   1.32000013628088964E+04   1.33000005610004755E+04   1.34000002081981347E+04   1.35000000691097030E+04
             1.36000000203615564E+04   1.37000000052824125E+04   1.38000000011962020E+04   1.39000000002340730E+04   1.40000000000391028E+04
             1.41000000000054933E+04   1.42000000000006366E+04   1.43000000000000582E+04   1.44000000000000036E+04   1.45000000000000000E+04
             1.46000000000000000E+04   1.47000000000000000E+04   1.48000000000000000E+04   1.49000000000000000E+04   1.50000000000000000E+04
             1.51000000000000000E+04   1.52000000000000000E+04   1.53000000000000000E+04   1.54000000000000000E+04   1.55000000000000000E+04
             1.56000000000000000E+04   1.57000000000000000E+04   1.58000000000000000E+04   1.59000000000000000E+04   1.60000000000000000E+04
             1.61000000000000000E+04   1.62000000000000000E+04   1.63000000000000000E+04   1.64000000000000000E+04   1.65000000000000000E+04
             1.66000000000000000E+04   1.67000000000000000E+04   1.68000000000000000E+04   1.69000000000000000E+04   1.70000000000000000E+04
             1.71000000000000000E+04   1.72000000000000000E+04   1.73000000000000000E+04   1.74000000000000000E+04   1.75000000000000000E+04
             1.76000000000000000E+04   1.77000000000000000E+04   1.78000000000000000E+04   1.79000000000000000E+04   1.80000000000000000E+04
             1.81000000000000000E+04   1.82000000000000000E+04   1.83000000000000000E+04   1.84000000000000000E+04   1.85000000000000000E+04
             1.86000000000000000E+04   1.87000000000000000E+04   1.88000000000000000E+04   1.89000000000000000E+04   1.90000000000000000E+04
             1.91000000000000000E+04   1.92000000000000000E+04   1.93000000000000000E+04   1.94000000000000000E+04   1.95000000000000000E+04
             1.96000000000000000E+04   1.97000000000000000E+04   1.98000000000000000E+04   1.99000000000000000E+04   2.00000000000000000E+04
             2.01000000000000000E+04
 ETA=    2   1.00000000000000000E+02   2.00000000000000000E+02   3.00000000000000000E+02   4.00000000000000000E+02   5.00000000000000000E+02
             6.00000000000000000E+02   7.00000000000000227E+02   8.00000000000000227E+02   9.00000000000000000E+02   1.00000000000000011E+03
             1.10000000000000045E+03   1.20000000000000114E+03   1.30000000000000091E+03   1.40000000000000136E+03   1.50000000000000159E+03
             1.60000000000000205E+03   1.70000000000000432E+03   1.80000000000000659E+03   1.90000000000001069E+03   2.00000000000001660E+03
             2.10000000000002410E+03   2.20000000000003502E+03   2.30000000000005093E+03   2.40000000000007458E+03   2.50000000000010732E+03
             2.60000000000015507E+03   2.70000000000022555E+03   2.80000000000032423E+03   2.90000000000046566E+03   3.00000000000067348E+03
             3.10000000000097225E+03   3.20000000000139926E+03   3.30000000000201271E+03   3.40000000000288946E+03   3.50000000000414320E+03
             3.60000000000593263E+03   3.70000000000848149E+03   3.80000000001210901E+03   3.90000000001724993E+03   4.00000000002453044E+03
             4.10000000003480545E+03   4.20000000004927097E+03   4.30000000006957180E+03   4.40000000009796986E+03   4.50000000013755653E+03
             4.60000000019254003E+03   4.70000000026860107E+03   4.80000000037338214E+03   4.90000000051708776E+03   5.00000000071324484E+03
             5.10000000097966767E+03   5.20000000133961385E+03   5.30000000182313943E+03   5.40000000246860418E+03   5.50000000332368654E+03
             5.60000000443934277E+03   5.70000000591398293E+03   5.80000000780356550E+03   5.90000001020082073E+03   6.00000001314031852E+03
             6.10000001643307951E+03   6.20000001914533459E+03   6.30000001825737763E+03   6.40000000571033252E+03   6.49999996283849305E+03
             6.59999985139597447E+03   6.69999960121355252E+03   6.79999909567408486E+03   6.89999815676830713E+03   6.99999653038143242E+03
             7.09999386532875815E+03   7.19998968608901578E+03   7.29998336682881381E+03   7.39997333050490943E+03   7.49995792652212185E+03
             7.59993286374653871E+03   7.69988985773039713E+03   7.79981240352466830E+03   7.89966844255474371E+03   7.99939820769151265E+03
             8.09889569967127409E+03   8.19798304758462655E+03   8.29637878215545970E+03   8.39366413887958879E+03   8.48926232674441781E+03
             8.58240274806978778E+03   8.67215477758129782E+03   8.75748085832800462E+03   8.83732990527211950E+03   8.91078058198667895E+03
             8.97716009105188095E+03   9.03619184153747483E+03   9.08805014863695942E+03   9.13333453799774543E+03   9.17297674869515868E+03
             9.20807620027877783E+03   9.23973662117605272E+03   9.26894012232214300E+03   9.29648167396011013E+03   9.32295407287292073E+03
             9.34877328679865059E+03   9.37421300834055910E+03   9.39944256825035700E+03   9.42456291565580614E+03   9.44962809621819906E+03
             9.47466774322276251E+03   9.49969664295956863E+03   9.52472007705818396E+03   9.54974223507304851E+03   9.57476216638395636E+03
             9.59978109167080765E+03   9.62479910038163507E+03   9.64981618084740694E+03   9.67483231073233037E+03   9.69984748407819097E+03
             9.72486171256821945E+03   9.74987502246551048E+03   9.77488745091925011E+03   9.79989904061066954E+03   9.82490983852230602E+03
             9.84991989861729053E+03   9.87492928331870644E+03   9.89993805594646255E+03   9.92494627330920230E+03   9.94995399127829660E+03
             9.97496126554284092E+03   9.99996814503390124E+03   1.00249746748229754E+04   1.00499809050613912E+04   1.00749869014085198E+04
             1.00999927512815575E+04   1.01249985626355265E+04   1.01500044572300048E+04   1.01750105628541696E+04   1.02000169995166270E+04
             1.02250238629272135E+04   1.02500312202465848E+04   1.02750391171109241E+04   1.03000475901778645E+04   1.03250566768866756E+04
             1.03500664178542247E+04   1.03750768619396804E+04   1.04000880699373229E+04   1.04251001048416401E+04   1.04501130248564114E+04
             1.04751268816771717E+04   1.05001417167247691E+04   1.05251575561028239E+04   1.05501744068118569E+04   1.05751922578908998E+04
             1.06002110904849615E+04   1.06252309157201998E+04   1.06502518698684435E+04   1.06752752965432301E+04   1.07003002071872670E+04
             1.07253308494413832E+04   1.07503724745754043E+04   1.07754398491141401E+04   1.08005625861354856E+04   1.08257945742005504E+04
             1.08512355846045029E+04   1.08770560916683462E+04   1.09035292801219584E+04   1.09310718282940361E+04   1.09602768043994893E+04
             1.09919393094826301E+04   1.10270400404821939E+04   1.10666841736067090E+04   1.11119718857720927E+04   1.11638281135272355E+04
             1.12228574490628926E+04   1.12892382282218787E+04   1.13626852787103671E+04   1.14425314596556127E+04   1.15278592683278548E+04
             1.16176059118658341E+04   1.17107416001371766E+04   1.18063293745427982E+04   1.19036131711783437E+04   1.20020081621257341E+04
             1.21010953052556906E+04   1.22005929944607415E+04   1.23003231860106753E+04   1.24001797116662947E+04   1.25001026871701069E+04
             1.26000600500321871E+04   1.27000353952383284E+04   1.28000205666391666E+04   1.29000115045403618E+04   1.30000060680373608E+04
             1.31000029671975299E+04   1.32000013243426019E+04   1.33000005299708209E+04   1.34000001844942581E+04   1.35000000514278636E+04
             1.36000000071415434E+04   1.36999999951937680E+04   1.37999999932864339E+04   1.38999999938905712E+04   1.39999999948854729E+04
             1.40999999958031767E+04   1.41999999965823481E+04   1.42999999972342648E+04   1.43999999977757470E+04   1.44999999982218287E+04
             1.45999999985865743E+04   1.46999999988833406E+04   1.47999999991225395E+04   1.48999999993093898E+04   1.49999999994603477E+04
             1.50999999995803537E+04   1.51999999996752449E+04   1.52999999997498890E+04   1.53999999998082985E+04   1.54999999998537751E+04
             1.55999999998889798E+04   1.56999999999160900E+04   1.57999999999368556E+04   1.58999999999526844E+04   1.59999999999646861E+04
             1.60999999999737374E+04   1.61999999999805514E+04   1.62999999999856482E+04   1.63999999999894426E+04   1.64999999999922402E+04
             1.65999999999943248E+04   1.66999999999958563E+04   1.67999999999969878E+04   1.68999999999978245E+04   1.69999999999984175E+04
             1.70999999999988468E+04   1.71999999999991705E+04   1.72999999999993997E+04   1.73999999999995707E+04   1.74999999999996871E+04
             1.75999999999997890E+04   1.76999999999998472E+04   1.77999999999998945E+04   1.78999999999999200E+04   1.79999999999999491E+04
             1.80999999999999636E+04   1.81999999999999818E+04   1.82999999999999782E+04   1.83999999999999782E+04   1.84999999999999964E+04
             1.85999999999999891E+04   1.86999999999999964E+04   1.88000000000000073E+04   1.88999999999999891E+04   1.90000000000000000E+04
             1.91000000000000036E+04   1.91999999999999964E+04   1.93000000000000036E+04   1.94000000000000000E+04   1.94999999999999927E+04
             1.95999999999999964E+04   1.97000000000000036E+04   1.98000000000000036E+04   1.99000000000000000E+04   2.00000000000000000E+04
             2.01000000000000000E+04
 ETA=    3   1.00000000000000000E+02   2.00000000000000000E+02   3.00000000000000000E+02   4.00000000000000000E+02   5.00000000000000000E+02
             6.00000000000000000E+02   7.00000000000000341E+02   8.00000000000000341E+02   9.00000000000000000E+02   1.00000000000000057E+03
             1.10000000000000114E+03   1.20000000000000205E+03   1.30000000000000182E+03   1.40000000000000273E+03   1.50000000000000250E+03
             1.60000000000000432E+03   1.70000000000000773E+03   1.80000000000001205E+03   1.90000000000001933E+03   2.00000000000002910E+03
             2.10000000000004184E+03   2.20000000000006276E+03   2.30000000000009231E+03   2.40000000000013324E+03   2.50000000000019190E+03
             2.60000000000027649E+03   2.70000000000040245E+03   2.80000000000057844E+03   2.90000000000083128E+03   3.00000000000120144E+03
             3.10000000000173350E+03   3.20000000000249429E+03   3.30000000000358477E+03   3.40000000000514865E+03   3.50000000000738282E+03
             3.60000000001057106E+03   3.70000000001511262E+03   3.80000000002157003E+03   3.90000000003072319E+03   4.00000000004367985E+03
             4.10000000006196569E+03   4.20000000008769348E+03   4.30000000012378950E+03   4.40000000017425464E+03   4.50000000024456767E+03
             4.60000000034217010E+03   4.70000000047711092E+03   4.80000000066288158E+03   4.90000000091748825E+03   5.00000000126476880E+03
             5.10000000173607987E+03   5.20000000237226595E+03   5.30000000322594587E+03   5.40000000436400569E+03   5.50000000586903752E+03
             5.60000000783035011E+03   5.70000001043002885E+03   5.80000001376475848E+03   5.90000001802147199E+03   6.00000002334401506E+03
             6.10000002967839737E+03   6.20000003626040962E+03   6.30000004028798867E+03   6.40000003399131765E+03   6.49999999910360293E+03
             6.59999989794616158E+03   6.69999966116518954E+03   6.79999917327683215E+03   6.89999825771445285E+03   6.99999666216353580E+03
             7.09999403629740027E+03   7.19998991869860311E+03   7.29998374514698662E+03   7.39997350164744330E+03   7.49995803687438456E+03
             7.59993290080782208E+03   7.69988975991638290E+03   7.79981207674070265E+03   7.89966775430275902E+03   7.99939697882703877E+03
             8.09889371939310513E+03   8.19798015264950482E+03   8.29637500207292760E+03   8.39365995684523295E+03   8.48925768531326321E+03
             8.58239876283880949E+03   8.67215307466384002E+03   8.75748320759840135E+03   8.83733831792630008E+03   8.91079454293933850E+03
             8.97717936952043601E+03   9.03621398757288625E+03   9.08807079215859267E+03   9.13334992178577522E+03   9.17298410910162056E+03
             9.20807478725321562E+03   9.23972767122526602E+03   9.26892612345070120E+03   9.29646505331164735E+03   9.32293732632549472E+03
             9.34875785157295104E+03   9.37419949047277623E+03   9.39943147180876804E+03   9.42455381133042465E+03   9.44962107594382360E+03
             9.47466240013380411E+03   9.49969236797102894E+03   9.52471680890885182E+03   9.54973934795659807E+03   9.57475985693250186E+03
             9.59977921816195703E+03   9.62479756320272645E+03   9.64981491314342748E+03   9.67483126300437470E+03   9.69984661608617535E+03
             9.72486099057868705E+03   9.74987442056573673E+03   9.77488695180360264E+03   9.79989863093068379E+03   9.82490950341965072E+03
             9.84991962194271582E+03   9.87492905254745710E+03   9.89993786183900920E+03   9.92494610435573668E+03   9.94995383557153946E+03
             9.97496111586247207E+03   9.99996799816078783E+03   1.00249745308919828E+04   1.00499807696341486E+04   1.00749867879652811E+04
             1.00999926792355673E+04   1.01249985484356166E+04   1.01500045044121762E+04   1.01750106615979821E+04   1.02000171330294979E+04
             1.02250240124238371E+04   1.02500313703258034E+04   1.02750392612520845E+04   1.03000477343552757E+04   1.03250568381525336E+04
             1.03500666159310222E+04   1.03750771144937044E+04   1.04000883956489524E+04   1.04251005223969751E+04   1.04501135512678211E+04
             1.04751275352822322E+04   1.05001425211937458E+04   1.05251585437451140E+04   1.05501756215627756E+04   1.05751937592327686E+04
             1.06002129590495697E+04   1.06252332643493519E+04   1.06502548465274394E+04   1.06752786614217239E+04   1.07003046300946589E+04
             1.07253363344228273E+04   1.07503795913405993E+04   1.07754489699021415E+04   1.08005735873182330E+04   1.08258077984683223E+04
             1.08512511041295493E+04   1.08770730254180580E+04   1.09035465028830222E+04   1.09310867613798346E+04   1.09602866917199663E+04
             1.09919412618198767E+04   1.10270330198791744E+04   1.10666688375541798E+04   1.11119504913806722E+04   1.11638056827760283E+04
             1.12228380690145532E+04   1.12892237986479868E+04   1.13626769886805268E+04   1.14425292631871525E+04   1.15278604952609749E+04
             1.16176096394054148E+04   1.17107458261185202E+04   1.18063337567694707E+04   1.19036168889083092E+04   1.20020109508213354E+04
             1.21010971935723392E+04   1.22005941466809309E+04   1.23003237991143178E+04   1.24001799713773144E+04   1.25001027466925298E+04
             1.26000600263784017E+04   1.27000353622272196E+04   1.28000205393848246E+04   1.29000114661725820E+04   1.30000060129999347E+04
             1.31000029054024508E+04   1.32000012668230629E+04   1.33000004831670940E+04   1.34000001499339251E+04   1.35000000275563580E+04
             1.35999999912518397E+04   1.36999999846639494E+04   1.37999999861093947E+04   1.38999999887434351E+04   1.39999999909871040E+04
             1.40999999927257850E+04   1.41999999940973485E+04   1.42999999952125836E+04   1.43999999961337944E+04   1.44999999968965731E+04
             1.45999999975258306E+04   1.46999999980422563E+04   1.47999999984604146E+04   1.48999999987860592E+04   1.49999999990499364E+04
             1.50999999992603771E+04   1.51999999994271238E+04   1.52999999995584785E+04   1.53999999996613733E+04   1.54999999997415489E+04
             1.55999999998036656E+04   1.56999999998515395E+04   1.57999999998882286E+04   1.58999999999162173E+04   1.59999999999374395E+04
             1.60999999999534684E+04   1.61999999999655192E+04   1.62999999999745523E+04   1.63999999999812753E+04   1.64999999999862339E+04
             1.65999999999899301E+04   1.66999999999926367E+04   1.67999999999946558E+04   1.68999999999961328E+04   1.69999999999971878E+04
             1.70999999999979482E+04   1.71999999999985230E+04   1.72999999999989341E+04   1.73999999999992360E+04   1.74999999999994507E+04
             1.75999999999996180E+04   1.76999999999997308E+04   1.77999999999998108E+04   1.78999999999998581E+04   1.79999999999999054E+04
             1.80999999999999382E+04   1.81999999999999709E+04   1.82999999999999636E+04   1.83999999999999636E+04   1.84999999999999854E+04
             1.85999999999999891E+04   1.86999999999999927E+04   1.88000000000000109E+04   1.88999999999999818E+04   1.90000000000000000E+04
             1.91000000000000036E+04   1.91999999999999964E+04   1.93000000000000109E+04   1.93999999999999964E+04   1.94999999999999927E+04
             1.95999999999999891E+04   1.97000000000000000E+04   1.98000000000000036E+04   1.99000000000000000E+04   2.00000000000000000E+04
             2.01000000000000000E+04
 ETA=    4   1.00000000000000000E+02   2.00000000000000000E+02   3.00000000000000000E+02   4.00000000000000000E+02   5.00000000000000000E+02
             6.00000000000000000E+02   7.00000000000000455E+02   8.00000000000000341E+02   9.00000000000000114E+02   1.00000000000000114E+03
             1.10000000000000182E+03   1.20000000000000273E+03   1.30000000000000273E+03   1.40000000000000387E+03   1.50000000000000318E+03
             1.60000000000000546E+03   1.70000000000001023E+03   1.80000000000001569E+03   1.90000000000002569E+03   2.00000000000003843E+03
             2.10000000000005548E+03   2.20000000000008276E+03   2.30000000000012233E+03   2.40000000000017599E+03   2.50000000000025284E+03
             2.60000000000036425E+03   2.70000000000053114E+03   2.80000000000076352E+03   2.90000000000109776E+03   3.00000000000158707E+03
             3.10000000000228738E+03   3.20000000000329237E+03   3.30000000000473028E+03   3.40000000000679347E+03   3.50000000000974296E+03
             3.60000000001394937E+03   3.70000000001994067E+03   3.80000000002845582E+03   3.90000000004052390E+03   4.00000000005760467E+03
             4.10000000008170264E+03   4.20000000011559860E+03   4.30000000016313516E+03   4.40000000022956010E+03   4.50000000032206572E+03
             4.60000000045039906E+03   4.70000000062772415E+03   4.80000000087168246E+03   4.90000000120581171E+03   5.00000000166123391E+03
             5.10000000227883174E+03   5.20000000311174244E+03   5.30000000422823723E+03   5.40000000571473811E+03   5.50000000767740039E+03
             5.60000001023226650E+03   5.70000001362953026E+03   5.80000001799205984E+03   5.90000002358652910E+03   6.00000003066081808E+03
             6.10000003930539060E+03   6.20000004896245719E+03   6.30000005713177325E+03   6.40000005649276227E+03   6.50000002944488733E+03
             6.59999993926492516E+03   6.69999971790773998E+03   6.79999925163257922E+03   6.89999836619125927E+03   6.99999681235939988E+03
             7.09999424209988138E+03   7.19999020977321925E+03   7.29998419259407819E+03   7.39997371783262770E+03   7.49995815640216824E+03
             7.59993290982043345E+03   7.69988957720697090E+03   7.79981157468646052E+03   7.89966675596116966E+03   7.99939525421885082E+03
             8.09889101356590982E+03   8.19797629245184544E+03   8.29637007802328299E+03   8.39365455891288912E+03   8.48925197043694425E+03
             8.58239417708986548E+03   8.67215169535581481E+03   8.75748724108653369E+03   8.83734992264725406E+03   8.91081320942886668E+03
             8.97720412522473089E+03   9.03624134289936774E+03   9.08809539112048878E+03   9.13336733696500050E+03   9.17299137939276625E+03
             9.20807161388614259E+03   9.23971598867603461E+03   9.26890901894467424E+03   9.29644537751181269E+03   9.32291758707804547E+03
             9.34873952586092491E+03   9.37418331455365478E+03   9.39941782593358039E+03   9.42454242581624931E+03   9.44961187754930688E+03
             9.47465504543688985E+03   9.49968633890917226E+03   9.52471196176421472E+03   9.54973516269403262E+03   9.57475641045029988E+03
             9.59977636812414312E+03   9.62479519759327923E+03   9.64981294723966676E+03   9.67482962971808956E+03   9.69984525988942733E+03
             9.72485986442689318E+03   9.74987348574791940E+03   9.77488617813106430E+03   9.79989799360332108E+03   9.82490897907943327E+03
             9.84991918832899137E+03   9.87492869107280603E+03   9.89993755712633902E+03   9.92494584098218729E+03   9.94995359931052917E+03
             9.97496089746527286E+03   9.99996779374664948E+03   1.00249743416712354E+04   1.00499806026276874E+04   1.00749866564936565E+04
             1.00999926005611487E+04   1.01249985365452740E+04   1.01500045620986948E+04   1.01750107802159237E+04   1.02000172977282273E+04
             1.02250242067882609E+04   1.02500315818893741E+04   1.02750394863772908E+04   1.03000479806099029E+04   1.03250571232087404E+04
             1.03500669617985059E+04   1.03750775444456431E+04   1.04000889364111008E+04   1.04251012027666020E+04   1.04501144007584153E+04
             1.04751285868225550E+04   1.05001438139628281E+04   1.05251601261183550E+04   1.05501775550302973E+04   1.05751961225153809E+04
             1.06002158518551641E+04   1.06252368125282355E+04   1.06502591993212045E+04   1.06752837161814241E+04   1.07003109056030935E+04
             1.07253439354594720E+04   1.07503890038519148E+04   1.07754605077869201E+04   1.08005872840670072E+04   1.08258239090332609E+04
             1.08512695145401995E+04   1.08770930028032508E+04   1.09035666435216517E+04   1.09311044830768769E+04   1.09602989722455786E+04
             1.09919448158371961E+04   1.10270260692578722E+04   1.10666514998332259E+04   1.11119252734146012E+04   1.11637780988178838E+04
             1.12228132964429715E+04   1.12892047332940747E+04   1.13626654509865293E+04   1.14425253419055643E+04   1.15278613443820159E+04
             1.16176138814573787E+04   1.17107510889816785E+04   1.18063393457420989E+04   1.19036217649522077E+04   1.20020146998713626E+04
             1.21010997938863693E+04   1.22005957758751247E+04   1.23003246995045120E+04   1.24001803843135767E+04   1.25001028771676720E+04
             1.26000600312593087E+04   1.27000353397782965E+04   1.28000205144125594E+04   1.29000114231814005E+04   1.30000059474377431E+04
             1.31000028302096853E+04   1.32000011962712197E+04   1.33000004257717446E+04   1.34000001080150541E+04   1.34999999994163591E+04
             1.35999999735229758E+04   1.36999999739108825E+04   1.37999999796039265E+04   1.38999999846416467E+04   1.39999999881914646E+04
             1.40999999906500780E+04   1.41999999924553285E+04   1.42999999938715227E+04   1.43999999950297151E+04   1.44999999959923625E+04
             1.45999999967937820E+04   1.46999999974578568E+04   1.47999999979989043E+04   1.48999999984191109E+04   1.49999999987607625E+04
             1.50999999990341112E+04   1.51999999992511712E+04   1.52999999994224272E+04   1.53999999995567359E+04   1.54999999996614806E+04
             1.55999999997426949E+04   1.56999999998053408E+04   1.57999999998533876E+04   1.58999999998900566E+04   1.59999999999178763E+04
             1.60999999999389038E+04   1.61999999999547126E+04   1.62999999999665688E+04   1.63999999999753927E+04   1.64999999999819047E+04
             1.65999999999867541E+04   1.66999999999903157E+04   1.67999999999929714E+04   1.68999999999949105E+04   1.69999999999962856E+04
             1.70999999999973043E+04   1.71999999999980537E+04   1.72999999999985921E+04   1.73999999999989923E+04   1.74999999999992833E+04
             1.75999999999994943E+04   1.76999999999996471E+04   1.77999999999997490E+04   1.78999999999998181E+04   1.79999999999998763E+04
             1.80999999999999200E+04   1.81999999999999673E+04   1.82999999999999527E+04   1.83999999999999527E+04   1.84999999999999745E+04
             1.85999999999999854E+04   1.86999999999999891E+04   1.88000000000000073E+04   1.88999999999999818E+04   1.89999999999999964E+04
             1.91000000000000036E+04   1.91999999999999927E+04   1.93000000000000146E+04   1.94000000000000000E+04   1.94999999999999927E+04
             1.95999999999999782E+04   1.97000000000000000E+04   1.98000000000000000E+04   1.99000000000000000E+04   2.00000000000000000E+04
             2.01000000000000000E+04
 ETA=    5   1.00000000000000000E+02   2.00000000000000000E+02   3.00000000000000000E+02   4.00000000000000000E+02   5.00000000000000000E+02
             6.00000000000000000E+02   7.00000000000000682E+02   8.00000000000000341E+02   9.00000000000000341E+02   1.00000000000000125E+03
             1.10000000000000273E+03   1.20000000000000318E+03   1.30000000000000318E+03   1.40000000000000409E+03   1.50000000000000387E+03
             1.60000000000000614E+03   1.70000000000001137E+03   1.80000000000001842E+03   1.90000000000003024E+03   2.00000000000004434E+03
             2.10000000000006412E+03   2.20000000000009550E+03   2.30000000000014143E+03   2.40000000000020464E+03   2.50000000000029286E+03
             2.60000000000042110E+03   2.70000000000061345E+03   2.80000000000088176E+03   2.90000000000126875E+03   3.00000000000183400E+03
             3.10000000000264390E+03   3.20000000000380533E+03   3.30000000000546652E+03   3.40000000000784985E+03   3.50000000001125909E+03
             3.60000000001612034E+03   3.70000000002304159E+03   3.80000000003287732E+03   3.90000000004681488E+03   4.00000000006653727E+03
             4.10000000009435371E+03   4.20000000013347199E+03   4.30000000018830906E+03   4.40000000026489488E+03   4.50000000037149948E+03
             4.60000000051930783E+03   4.70000000072341845E+03   4.80000000100404304E+03   4.90000000138812902E+03   5.00000000191126674E+03
             5.10000000262015237E+03   5.20000000357535737E+03   5.30000000485450983E+03   5.40000000655548683E+03   5.50000000879799791E+03
             5.60000001171421263E+03   5.70000001560680084E+03   5.80000002061304895E+03   5.90000002706515897E+03   6.00000003530699087E+03
             6.10000004557584907E+03   6.20000005754285303E+03   6.30000006906854287E+03   6.40000007340380580E+03   6.50000005383838106E+03
             6.59999997496951164E+03   6.69999977057729393E+03   6.79999932930498653E+03   6.89999847998954374E+03   6.99999697739417934E+03
             7.09999447620512274E+03   7.19999054674957188E+03   7.29998469358428611E+03   7.39997396783032855E+03   7.49995827899721371E+03
             7.59993289156178616E+03   7.69988932672150622E+03   7.79981094472802670E+03   7.89966554351957438E+03   7.99939320147253420E+03
             8.09888784496909193E+03   8.19797183722404407E+03   8.29636446962346417E+03   8.39364845170881199E+03   8.48924569573518966E+03
             8.58238940129133698E+03   8.67215077386435041E+03   8.75749261625324289E+03   8.83736373441609067E+03   8.91083491219646567E+03
             8.97723209025895812E+03   9.03627132692239320E+03   9.08812152546522157E+03   9.13338495844809768E+03   9.17299781044275005E+03
             9.20806706849329748E+03   9.23970286175870388E+03   9.26889058430740442E+03   9.29642457630152057E+03   9.32289676246325689E+03
             9.34872011260056024E+03   9.37416603680722983E+03   9.39940297449032369E+03   9.42452985695718962E+03   9.44960143178288126E+03
             9.47464643292335859E+03   9.49967915090469432E+03   9.52470601107102993E+03   9.54973005900282806E+03   9.57475213390944191E+03
             9.59977278487989861E+03   9.62479219480353640E+03   9.64981043245438195E+03   9.67482752666903980E+03   9.69984350464811178E+03
             9.72485840245282634E+03   9.74987227029207679E+03   9.77488516953117141E+03   9.79989715814506781E+03   9.82490828740803408E+03
             9.84991861452785088E+03   9.87492821222132079E+03   9.89993715296088158E+03   9.92494549390675456E+03   9.94995329464940733E+03
             9.97496062474519022E+03   9.99996754812047766E+03   1.00249741244726465E+04   1.00499804209078484E+04   1.00749865213507710E+04
             1.00999925244307578E+04   1.01249985288756470E+04   1.01500046250717060E+04   1.01750109082822328E+04   1.02000174803087375E+04
             1.02250244321276241E+04   1.02500318421379707E+04   1.02750397813975669E+04   1.03000483190306422E+04   1.03250575218200338E+04
             1.03500674434676093E+04   1.03750781366398205E+04   1.04000896710875859E+04   1.04251021151555397E+04   1.04501155292182902E+04
             1.04751299748358906E+04   1.05001455115828176E+04   1.05251621921251080E+04   1.05501800607489167E+04   1.05751991553295866E+04
             1.06002195171623607E+04   1.06252412338749582E+04   1.06502645147806707E+04   1.06752899327237137E+04   1.07003183859981291E+04
             1.07253528443999094E+04   1.07503997247448133E+04   1.07754733039234761E+04   1.08006022798815211E+04   1.08258412629681297E+04
             1.08512890571136322E+04   1.08771140723217868E+04   1.09035878131481240E+04   1.09311233424075326E+04   1.09603125064283558E+04
             1.09919496481538499E+04   1.10270199133331935E+04   1.10666339458539896E+04   1.11118986718107462E+04   1.11637479397100687E+04
             1.12227853725787791E+04   1.12891827042352888E+04   1.13626516480901046E+04   1.14425200293517246E+04   1.15278617094963647E+04
             1.16176182556122094E+04   1.17107568870173218E+04   1.18063456121679283E+04   1.19036273232986587E+04   1.20020190356605781E+04
             1.21011028435617900E+04   1.22005977166840221E+04   1.23003257964737022E+04   1.24001809104360109E+04   1.25001030675753173E+04
             1.26000600655541966E+04   1.27000353305315421E+04   1.28000204937583039E+04   1.29000113787693954E+04   1.30000058768040435E+04
             1.31000027483456870E+04   1.32000011190575915E+04   1.33000003627623773E+04   1.34000000620711526E+04   1.34999999689352062E+04
             1.35999999548881369E+04   1.36999999632666331E+04   1.37999999737938961E+04   1.38999999814838866E+04   1.39999999863687572E+04
             1.40999999894593147E+04   1.41999999915645385E+04   1.42999999931432430E+04   1.43999999944143856E+04   1.44999999954733994E+04
             1.45999999963636365E+04   1.46999999971094494E+04   1.47999999977219941E+04   1.48999999981965248E+04   1.49999999985838513E+04
             1.50999999988948057E+04   1.51999999991422992E+04   1.52999999993379060E+04   1.53999999994915124E+04   1.54999999996114257E+04
             1.55999999997044779E+04   1.56999999997763261E+04   1.57999999998314561E+04   1.58999999998735620E+04   1.59999999999055271E+04
             1.60999999999296979E+04   1.61999999999478769E+04   1.62999999999615193E+04   1.63999999999716601E+04   1.64999999999791617E+04
             1.65999999999847350E+04   1.66999999999888387E+04   1.67999999999918946E+04   1.68999999999941356E+04   1.69999999999957217E+04
             1.70999999999968932E+04   1.71999999999977554E+04   1.72999999999983775E+04   1.73999999999988395E+04   1.74999999999991705E+04
             1.75999999999994106E+04   1.76999999999995925E+04   1.77999999999997090E+04   1.78999999999997890E+04   1.79999999999998581E+04
             1.80999999999999127E+04   1.81999999999999673E+04   1.82999999999999454E+04   1.83999999999999454E+04   1.84999999999999563E+04
             1.85999999999999782E+04   1.86999999999999818E+04   1.88000000000000073E+04   1.88999999999999818E+04   1.90000000000000000E+04
             1.91000000000000036E+04   1.91999999999999927E+04   1.93000000000000182E+04   1.94000000000000073E+04   1.94999999999999964E+04
             1.95999999999999782E+04   1.96999999999999964E+04   1.97999999999999964E+04   1.99000000000000000E+04   2.00000000000000000E+04
             2.01000000000000000E+04
 ETA=    6   1.00000000000000000E+02   2.00000000000000000E+02   3.00000000000000000E+02   4.00000000000000000E+02   5.00000000000000000E+02
             6.00000000000000000E+02   7.00000000000000909E+02   8.00000000000000568E+02   9.00000000000000455E+02   1.00000000000000171E+03
             1.10000000000000318E+03   1.20000000000000341E+03   1.30000000000000341E+03   1.40000000000000455E+03   1.50000000000000409E+03
             1.60000000000000659E+03   1.70000000000001205E+03   1.80000000000002001E+03   1.90000000000003274E+03   2.00000000000004684E+03
             2.10000000000006867E+03   2.20000000000010141E+03   2.30000000000015143E+03   2.40000000000021964E+03   2.50000000000031241E+03
             2.60000000000044884E+03   2.70000000000065256E+03   2.80000000000093769E+03   2.90000000000134969E+03   3.00000000000195223E+03
             3.10000000000281398E+03   3.20000000000404907E+03   3.30000000000581713E+03   3.40000000000835325E+03   3.50000000001198123E+03
             3.60000000001715625E+03   3.70000000002452134E+03   3.80000000003498462E+03   3.90000000004981121E+03   4.00000000007078688E+03
             4.10000000010036547E+03   4.20000000014194757E+03   4.30000000020021525E+03   4.40000000028155227E+03   4.50000000039470888E+03
             4.60000000055151304E+03   4.70000000076790911E+03   4.80000000106521929E+03   4.90000000147185983E+03   5.00000000202531282E+03
             5.10000000277470281E+03   5.20000000378365257E+03   5.30000000513349914E+03   5.40000000692643789E+03   5.50000000928699046E+03
             5.60000001235389573E+03   5.70000001646672081E+03   5.80000002176759153E+03   5.90000002863987447E+03   6.00000003751231452E+03
             6.10000004876444928E+03   6.20000006230573308E+03   6.30000007639517844E+03   6.40000008494638496E+03   6.50000007232446296E+03
             6.60000000477602589E+03   6.69999981840948021E+03   6.79999940489498567E+03   6.89999859683877457E+03   6.99999715355368880E+03
             7.09999473196347935E+03   7.19999091796008815E+03   7.29998523406068216E+03   7.39997424096394479E+03   7.49995839761180559E+03
             7.59993284335109911E+03   7.69988901597701442E+03   7.79981021314325699E+03   7.89966417266231383E+03   7.99939091831670248E+03
             8.09888436552394796E+03   8.19796699713048110E+03   8.29635842963613686E+03   8.39364189986810015E+03   8.48923911069618225E+03
             8.58238459996849087E+03   8.67215028479024841E+03   8.75749901122454867E+03   8.83737908344306743E+03   8.91085865180381370E+03
             8.97726208948998465E+03   9.03630282554399128E+03   9.08814838379277717E+03   9.13340241797724593E+03   9.17300349898384229E+03
             9.20806157843318215E+03   9.23968885130090894E+03   9.26887139186554305E+03   9.29640316217012696E+03   9.32287536704544800E+03
             9.34870013173343250E+03   9.37414816869521928E+03   9.39938745981253487E+03   9.42451659984964681E+03   9.44959023790531319E+03
             9.47463703466752668E+03   9.49967121680672972E+03   9.52469933013186164E+03   9.54972433862824619E+03   9.57474728973996935E+03
             9.59976869048256231E+03   9.62478873896849291E+03   9.64980751988076008E+03   9.67482507695888489E+03   9.69984144965333326E+03
             9.72485668368662482E+03   9.74987083651963803E+03   9.77488397526046538E+03   9.79989616388403738E+03   9.82490745997510930E+03
             9.84991792582709422E+03   9.87492763660330093E+03   9.89993666701797702E+03   9.92494507895754396E+03   9.94995293624520855E+03
             9.97496031176729957E+03   9.99996727474122963E+03   1.00249738913180918E+04   1.00499802339499474E+04   1.00749863889313419E+04
             1.00999924542996905E+04   1.01249985263001690E+04   1.01500046918794051E+04   1.01750110420386809E+04   1.02000176746963607E+04
             1.02250246801718913E+04   1.02500321404709321E+04   1.02750401330011609E+04   1.03000487335130201E+04   1.03250580151596059E+04
             1.03500680388994824E+04   1.03750788642950629E+04   1.04000905656687410E+04   1.04251032154086242E+04   1.04501168789965013E+04
             1.04751316240812430E+04   1.05001475168827874E+04   1.05251646182800687E+04   1.05501829838454505E+04   1.05752026654489455E+04
             1.06002237197530631E+04   1.06252462474518197E+04   1.06502704666519257E+04   1.06752968993081213E+04   1.07003266265827406E+04
             1.07253625560267028E+04   1.07504112189514126E+04   1.07754868257679282E+04   1.08006179979849767E+04   1.08258592889480260E+04
             1.08513092102505743E+04   1.08771357064899312E+04   1.09036095307975229E+04   1.09311428526636137E+04   1.09603268185276338E+04
             1.09919553709521715E+04   1.10270144528756373E+04   1.10666165455028004E+04   1.11118714885039844E+04   1.11637163193345059E+04
             1.12227554523375147E+04   1.12891587076227552E+04   1.13626362585143033E+04   1.14425136433472271E+04   1.15278616355931608E+04
             1.16176226177627159E+04   1.17107629794568147E+04   1.18063522761357162E+04   1.19036332995745161E+04   1.20020237448529497E+04
             1.21011061904026574E+04   1.22005998732270182E+04   1.23003270388264191E+04   1.24001815294164589E+04   1.25001033151789106E+04
             1.26000601332250644E+04   1.27000353386481202E+04   1.28000204806154707E+04   1.29000113367290251E+04   1.30000058062716307E+04
             1.31000026656333957E+04   1.32000010405711364E+04   1.33000002984208732E+04   1.34000000150897686E+04   1.34999999379427682E+04
             1.35999999363067855E+04   1.36999999531265748E+04   1.37999999687605214E+04   1.38999999792067611E+04   1.39999999854088255E+04
             1.40999999890438885E+04   1.41999999913334814E+04   1.42999999929571823E+04   1.43999999942352169E+04   1.44999999953007555E+04
             1.45999999962062429E+04   1.46999999969747587E+04   1.47999999976124782E+04   1.48999999981052624E+04   1.49999999985093636E+04
             1.50999999988349991E+04   1.51999999990948636E+04   1.52999999993006477E+04   1.53999999994624795E+04   1.54999999995889666E+04
             1.55999999996872084E+04   1.56999999997631385E+04   1.57999999998214389E+04   1.58999999998659969E+04   1.59999999998998464E+04
             1.60999999999254524E+04   1.61999999999447227E+04   1.62999999999591837E+04   1.63999999999699285E+04   1.64999999999778884E+04
             1.65999999999837928E+04   1.66999999999881438E+04   1.67999999999913889E+04   1.68999999999937645E+04   1.69999999999954562E+04
             1.70999999999967004E+04   1.71999999999976098E+04   1.72999999999982720E+04   1.73999999999987631E+04   1.74999999999991160E+04
             1.75999999999993670E+04   1.76999999999995598E+04   1.77999999999996908E+04   1.78999999999997744E+04   1.79999999999998508E+04
             1.80999999999999163E+04   1.81999999999999673E+04   1.82999999999999418E+04   1.83999999999999454E+04   1.84999999999999563E+04
             1.85999999999999818E+04   1.86999999999999818E+04   1.88000000000000073E+04   1.88999999999999854E+04   1.90000000000000036E+04
             1.91000000000000036E+04   1.92000000000000000E+04   1.93000000000000255E+04   1.94000000000000146E+04   1.95000000000000000E+04
             1.95999999999999818E+04   1.97000000000000000E+04   1.98000000000000000E+04   1.99000000000000000E+04   2.00000000000000000E+04
             2.01000000000000000E+04
 ETA=    7   1.00000000000000000E+02   2.00000000000000000E+02   3.00000000000000000E+02   4.00000000000000000E+02   5.00000000000000000E+02
             6.00000000000000000E+02   7.00000000000000909E+02   8.00000000000000682E+02   9.00000000000000568E+02   1.00000000000000171E+03
             1.10000000000000364E+03   1.20000000000000364E+03   1.30000000000000364E+03   1.40000000000000477E+03   1.50000000000000409E+03
             1.60000000000000659E+03   1.70000000000001205E+03   1.80000000000002001E+03   1.90000000000003274E+03   2.00000000000004707E+03
             2.10000000000006867E+03   2.20000000000010095E+03   2.30000000000015234E+03   2.40000000000022055E+03   2.50000000000031241E+03
             2.60000000000044838E+03   2.70000000000065165E+03   2.80000000000093587E+03   2.90000000000134742E+03   3.00000000000195041E+03
             3.10000000000281170E+03   3.20000000000404498E+03   3.30000000000581167E+03   3.40000000000834689E+03   3.50000000001197350E+03
             3.60000000001714488E+03   3.70000000002450633E+03   3.80000000003496143E+03   3.90000000004977483E+03   4.00000000007073049E+03
             4.10000000010027270E+03   4.20000000014179204E+03   4.30000000019994695E+03   4.40000000028108298E+03   4.50000000039389488E+03
             4.60000000055012697E+03   4.70000000076558263E+03   4.80000000106138395E+03   4.90000000146565890E+03   5.00000000201547027E+03
             5.10000000275935054E+03   5.20000000376007301E+03   5.30000000509771962E+03   5.40000000687260217E+03   5.50000000920653747E+03
             5.60000001223631443E+03   5.70000001632310432E+03   5.80000002160600070E+03   5.90000002850485998E+03   6.00000003751935310E+03
             6.10000004916017861E+03   6.20000006357285929E+03   6.30000007943398396E+03   6.40000009138407495E+03   6.50000008501229240E+03
             6.60000002850079909E+03   6.69999986075304059E+03   6.79999947708749460E+03   6.89999871450151386E+03   6.99999733715699040E+03
             7.09999500289226762E+03   7.19999131269917871E+03   7.29998580137029148E+03   7.39997452764394347E+03   7.49995850593807609E+03
             7.59993276281287399E+03   7.69988865109927883E+03   7.79980940164119784E+03   7.89966268957447664E+03   7.99938848584886364E+03
             8.09888070123603757E+03   8.19796194669487159E+03   8.29635216980492078E+03   8.39363512735812947E+03   8.48923242085025231E+03
             8.58237989675178142E+03   8.67215017930946487E+03   8.75750611824656517E+03   8.83739537614446090E+03   8.91088357139389518E+03
             8.97729317212221395E+03   9.03633501789316506E+03   9.08817545642964251E+03   9.13341960207013653E+03   9.17300865270398754E+03
             9.20805551955203919E+03   9.23967435454397855E+03   9.26885180756720001E+03   9.29638144673278293E+03   9.32285371076029332E+03
             9.34867989995906646E+03   9.37413003763725646E+03   9.39937164033068439E+03   9.42450300571821390E+03   9.44957866097967781E+03
             9.47462721524321023E+03   9.49966286875481092E+03   9.52469223405147568E+03   9.54971826105213222E+03   9.57474211106007169E+03
             9.59976428814430983E+03   9.62478500378508215E+03   9.64980435649545689E+03   9.67482240394543260E+03   9.69983919735773088E+03
             9.72485479202605165E+03   9.74986925235817216E+03   9.77488265047301320E+03   9.79989505620416458E+03   9.82490653426450626E+03
             9.84991715280137760E+03   9.87492698934278451E+03   9.89993612083581866E+03   9.92494461481594408E+03   9.94995253999897432E+03
             9.97495997214617455E+03   9.99996698520815880E+03   1.00249736513578137E+04   1.00499800477843964E+04   1.00749862622285618E+04
             1.00999923912572413E+04   1.01249985292488218E+04   1.01500047624215695E+04   1.01750111800399663E+04   1.02000178772912532E+04
             1.02250249444428155E+04   1.02500324666870092E+04   1.02750405264875553E+04   1.03000492047308999E+04   1.03250585797234344E+04
             1.03500687200391876E+04   1.03750796931044806E+04   1.04000915776692163E+04   1.04251044507370316E+04   1.04501183841149250E+04
             1.04751334518738131E+04   1.05001497268831990E+04   1.05251672779203800E+04   1.05501861706077107E+04   1.05752064688187820E+04
             1.06002282425654976E+04   1.06252516034046421E+04   1.06502767768763788E+04   1.06753042759784803E+04   1.07003352750352442E+04
             1.07253726847812050E+04   1.07504230987351984E+04   1.07755006978519195E+04   1.08006340527881403E+04   1.08258776223523837E+04
             1.08513296430276514E+04   1.08771575949983962E+04   1.09036315090843273E+04   1.09311626985589191E+04   1.09603415607347342E+04
             1.09919616335210485E+04   1.10270094922763419E+04   1.10665994240723394E+04   1.11118442138789233E+04   1.11636840592109183E+04
             1.12227244733275220E+04   1.12891335940612244E+04   1.13626198879774256E+04   1.14425064920976984E+04   1.15278611850904545E+04
             1.16176268594120502E+04   1.17107691666324936E+04   1.18063591042385742E+04   1.19036394739300613E+04   1.20020286500763686E+04
             1.21011097080033487E+04   1.22006021660390288E+04   1.23003283842241872E+04   1.24001822243672905E+04   1.25001036175818899E+04
             1.26000602376563111E+04   1.27000353680893732E+04   1.28000204784060261E+04   1.29000113009056367E+04   1.30000057405217012E+04
             1.31000025870307418E+04   1.32000009653410652E+04   1.33000002364054926E+04   1.33999999697068197E+04   1.34999999081226324E+04
             1.35999999187103931E+04   1.36999999439084677E+04   1.37999999646179585E+04   1.38999999777731373E+04   1.39999999852171204E+04
             1.40999999893010299E+04   1.41999999916719808E+04   1.42999999932413466E+04   1.43999999944372303E+04   1.44999999954331161E+04
             1.45999999962905458E+04   1.46999999970301396E+04   1.47999999976520994E+04   1.48999999981313831E+04   1.49999999985266786E+04
             1.50999999988466152E+04   1.51999999991027198E+04   1.52999999993059882E+04   1.53999999994661139E+04   1.54999999995914386E+04
             1.55999999996888855E+04   1.56999999997642844E+04   1.57999999998222174E+04   1.58999999998665335E+04   1.59999999999002193E+04
             1.60999999999257125E+04   1.61999999999449155E+04   1.62999999999593201E+04   1.63999999999700231E+04   1.64999999999779538E+04
             1.65999999999838292E+04   1.66999999999881657E+04   1.67999999999913998E+04   1.68999999999937718E+04   1.69999999999954707E+04
             1.70999999999967076E+04   1.71999999999976062E+04   1.72999999999982647E+04   1.73999999999987594E+04   1.74999999999991123E+04
             1.75999999999993597E+04   1.76999999999995525E+04   1.77999999999996835E+04   1.78999999999997708E+04   1.79999999999998545E+04
             1.80999999999999200E+04   1.81999999999999673E+04   1.82999999999999491E+04   1.83999999999999418E+04   1.84999999999999600E+04
             1.85999999999999891E+04   1.86999999999999818E+04   1.88000000000000109E+04   1.88999999999999891E+04   1.90000000000000073E+04
             1.91000000000000036E+04   1.92000000000000036E+04   1.93000000000000255E+04   1.94000000000000146E+04   1.95000000000000000E+04
             1.95999999999999818E+04   1.96999999999999964E+04   1.98000000000000000E+04   1.99000000000000000E+04   2.00000000000000000E+04
             2.01000000000000000E+04
 ETA=    8   1.00000000000000000E+02   2.00000000000000000E+02   3.00000000000000000E+02   4.00000000000000000E+02   5.00000000000000000E+02
             6.00000000000000000E+02   7.00000000000000796E+02   8.00000000000000682E+02   9.00000000000000796E+02   1.00000000000000148E+03
             1.10000000000000387E+03   1.20000000000000364E+03   1.30000000000000341E+03   1.40000000000000477E+03   1.50000000000000409E+03
             1.60000000000000614E+03   1.70000000000001160E+03   1.80000000000001910E+03   1.90000000000003183E+03   2.00000000000004479E+03
             2.10000000000006503E+03   2.20000000000009550E+03   2.30000000000014506E+03   2.40000000000020918E+03   2.50000000000029559E+03
             2.60000000000042428E+03   2.70000000000061618E+03   2.80000000000088312E+03   2.90000000000127147E+03   3.00000000000184082E+03
             3.10000000000265391E+03   3.20000000000381806E+03   3.30000000000548653E+03   3.40000000000788032E+03   3.50000000001130820E+03
             3.60000000001619310E+03   3.70000000002314755E+03   3.80000000003302466E+03   3.90000000004701587E+03   4.00000000006680693E+03
             4.10000000009470295E+03   4.20000000013389581E+03   4.30000000018876744E+03   4.40000000026527414E+03   4.50000000037158225E+03
             4.60000000051870393E+03   4.70000000072143303E+03   4.80000000099953195E+03   4.90000000137928600E+03   5.00000000189531875E+03
             5.10000000259292210E+03   5.20000000353062751E+03   5.30000000478299080E+03   5.40000000644315514E+03   5.50000000862387697E+03
             5.60000001145254009E+03   5.70000001529719884E+03   5.80000002028735526E+03   5.90000002686444714E+03   6.00000003558265689E+03
             6.10000004706712389E+03   6.20000006168687105E+03   6.30000007853856823E+03   6.40000009302909893E+03   6.50000009208518441E+03
             6.60000004606464881E+03   6.69999989708317935E+03   6.79999954469106615E+03   6.89999883085213787E+03   6.99999752469211944E+03
             7.09999528287082558E+03   7.19999172124330289E+03   7.29998638411438606E+03   7.39997481944214360E+03   7.49995859884466881E+03
             7.59993264886048746E+03   7.69988823902376498E+03   7.79980853176267283E+03   7.89966113904638496E+03   7.99938598239431758E+03
             8.09887697404235223E+03   8.19795685619116375E+03   8.29634590104514973E+03   8.39362836404014342E+03   8.48922583764371302E+03
             8.58237541965251148E+03   8.67215041227699294E+03   8.75751363302198479E+03   8.83741202126524695E+03   8.91090881001697016E+03
             8.97732437520768144E+03   9.03636706077132840E+03   9.08820219678243120E+03   9.13343635384000663E+03   9.17301343777509464E+03
             9.20804924964958809E+03   9.23965980154973659E+03   9.26883227377528056E+03   9.29635984795604963E+03   9.32283219263972205E+03
             9.34865979500272806E+03   9.37411200185081725E+03   9.39935586663166941E+03   9.42448940825028694E+03   9.44956702870566369E+03
             9.47461729460752213E+03   9.49965439996922760E+03   9.52468499976616113E+03   9.54971206027507287E+03   9.57473680893129131E+03
             9.59975976412160526E+03   9.62478115116906520E+03   9.64980108175266287E+03   9.67481962671619294E+03   9.69983684849938982E+03
             9.72485281168494839E+03   9.74986758747860949E+03   9.77488125281736757E+03   9.79989388320934086E+03   9.82490555047297676E+03
             9.84991632867606313E+03   9.87492629796032270E+03   9.89993553778053138E+03   9.92494412130254568E+03   9.94995212220239773E+03
             9.97495961903371062E+03   9.99996668988097917E+03   1.00249734121140646E+04   1.00499798669272295E+04   1.00749861431083846E+04
             1.00999923357081789E+04   1.01249985378976216E+04   1.01500048366741012E+04   1.01750113211368607E+04   1.02000180848653727E+04
             1.02250252186153793E+04   1.02500328103266620E+04   1.02750409464417990E+04   1.03000497120129403E+04   1.03250591897928898E+04
             1.03500694556371545E+04   1.03750805847398988E+04   1.04000926602356685E+04   1.04251057641210191E+04   1.04501199749803909E+04
             1.04751353732875159E+04   1.05001520385286403E+04   1.05251700471729910E+04   1.05501894739210948E+04   1.05752103931477286E+04
             1.06002328867843626E+04   1.06252570766998906E+04   1.06502831972439362E+04   1.06753117706759804E+04   1.07003440246232494E+04
             1.07253828970177401E+04   1.07504350215439699E+04   1.07755145701973561E+04   1.08006500734446781E+04   1.08258958813784338E+04
             1.08513499641916078E+04   1.08771793406942397E+04   1.09036533473945146E+04   1.09311824658965597E+04   1.09603563322536193E+04
             1.09919680945645850E+04   1.10270048820792454E+04   1.10665827504145745E+04   1.11118173746920402E+04   1.11636520027083643E+04
             1.12226933916696798E+04   1.12891082172128645E+04   1.13626031394332458E+04   1.14424988837219680E+04   1.15278604124494195E+04
             1.16176308641309679E+04   1.17107752405780338E+04   1.18063658616719458E+04   1.19036456299326892E+04   1.20020335786405703E+04
             1.21011132740940648E+04   1.22006045183304323E+04   1.23003297912125126E+04   1.24001829776749710E+04   1.25001039707692780E+04
             1.26000603807379812E+04   1.27000354220710706E+04   1.28000204903497306E+04   1.29000112748919928E+04   1.30000056836349540E+04
             1.31000025166827145E+04   1.32000008971305724E+04   1.33000001798017202E+04   1.33999999282017034E+04   1.34999998809756362E+04
             1.35999999029602222E+04   1.36999999360186757E+04   1.37999999614917251E+04   1.38999999771608018E+04   1.39999999857100956E+04
             1.40999999901337978E+04   1.41999999924917320E+04   1.42999999939232966E+04   1.43999999949639605E+04   1.44999999958274730E+04
             1.45999999965839943E+04   1.46999999972508231E+04   1.47999999978216838E+04   1.48999999982601621E+04   1.49999999986245293E+04
             1.50999999989210337E+04   1.51999999991592922E+04   1.52999999993489182E+04   1.53999999994986010E+04   1.54999999996159622E+04
             1.55999999997073392E+04   1.56999999997781269E+04   1.57999999998325766E+04   1.58999999998742642E+04   1.59999999999059619E+04
             1.60999999999299798E+04   1.61999999999480769E+04   1.62999999999616557E+04   1.63999999999717365E+04   1.64999999999792199E+04
             1.65999999999847423E+04   1.66999999999888278E+04   1.67999999999918764E+04   1.68999999999941247E+04   1.69999999999957290E+04
             1.70999999999968895E+04   1.71999999999977263E+04   1.72999999999983556E+04   1.73999999999988213E+04   1.74999999999991596E+04
             1.75999999999993852E+04   1.76999999999995634E+04   1.77999999999996944E+04   1.78999999999997781E+04   1.79999999999998618E+04
             1.80999999999999272E+04   1.81999999999999745E+04   1.82999999999999527E+04   1.83999999999999454E+04   1.84999999999999673E+04
             1.85999999999999964E+04   1.86999999999999818E+04   1.88000000000000109E+04   1.88999999999999927E+04   1.90000000000000036E+04
             1.91000000000000000E+04   1.92000000000000036E+04   1.93000000000000291E+04   1.94000000000000146E+04   1.95000000000000000E+04
             1.95999999999999782E+04   1.96999999999999964E+04   1.98000000000000000E+04   1.99000000000000000E+04   2.00000000000000000E+04
             2.01000000000000000E+04
 ETA=    9   1.00000000000000000E+02   2.00000000000000000E+02   3.00000000000000000E+02   4.00000000000000000E+02   5.00000000000000000E+02
             6.00000000000000000E+02   7.00000000000000682E+02   8.00000000000000909E+02   9.00000000000000682E+02   1.00000000000000136E+03
             1.10000000000000364E+03   1.20000000000000341E+03   1.30000000000000296E+03   1.40000000000000432E+03   1.50000000000000341E+03
             1.60000000000000523E+03   1.70000000000001023E+03   1.80000000000001705E+03   1.90000000000002888E+03   2.00000000000004070E+03
             2.10000000000005866E+03   2.20000000000008458E+03   2.30000000000013051E+03   2.40000000000018645E+03   2.50000000000026330E+03
             2.60000000000037790E+03   2.70000000000054752E+03   2.80000000000078580E+03   2.90000000000113096E+03   3.00000000000163755E+03
             3.10000000000236105E+03   3.20000000000339605E+03   3.30000000000488126E+03   3.40000000000701311E+03   3.50000000001006811E+03
             3.60000000001442004E+03   3.70000000002061643E+03   3.80000000002941715E+03   3.90000000004188223E+03   4.00000000005951324E+03
             4.10000000008436200E+03   4.20000000011925749E+03   4.30000000016808826E+03   4.40000000023612210E+03   4.50000000033058404E+03
             4.60000000046119021E+03   4.70000000064098822E+03   4.80000000088737761E+03   4.90000000122347592E+03   5.00000000167973121E+03
             5.10000000229594843E+03   5.20000000312354769E+03   5.30000000422796802E+03   5.40000000569079293E+03   5.50000000761045976E+03
             5.60000001009859534E+03   5.70000001351630999E+03   5.80000001797796995E+03   5.90000002393167597E+03   6.00000003196784110E+03
             6.10000004280466601E+03   6.20000005701320606E+03   6.30000007409776390E+03   6.40000009024764768E+03   6.50000009380606207E+03
             6.60000005749884076E+03   6.69999992701471001E+03   6.79999960667156120E+03   6.89999894394218063E+03   6.99999771292346213E+03
             7.09999556627799029E+03   7.19999213486663757E+03   7.29998697207350779E+03   7.39997510907071592E+03   7.49995867245515001E+03
             7.59993250187349167E+03   7.69988778792785615E+03   7.79980762567754300E+03   7.89965956576457938E+03   7.99938348547503847E+03
             8.09887330461252714E+03   8.19795189516930077E+03   8.29633983674493902E+03   8.39362184799603892E+03   8.48921958148585509E+03
             8.58237130543217063E+03   8.67215094716148087E+03   8.75752125766278914E+03   8.83742842558139455E+03   8.91093349129262970E+03
             8.97735469769906740E+03   9.03639804654181899E+03   9.08822797497699321E+03   9.13345243124225817E+03   9.17301796332819140E+03
             9.20804312292526811E+03   9.23964568220864749E+03   9.26881333483227536E+03   9.29633890469833750E+03   9.32281131811586965E+03
             9.34864027609457298E+03   9.37409447324139546E+03   9.39934051282843029E+03   9.42447614795932350E+03   9.44955565766715881E+03
             9.47460756973716161E+03   9.49964608042512737E+03   9.52467787659610622E+03   9.54970595140388286E+03   9.57473157596233250E+03
             9.59975528892775401E+03   9.62477733049583730E+03   9.64979782543774127E+03   9.67481685714999730E+03   9.69983449876136729E+03
             9.72485082376415630E+03   9.74986591005051741E+03   9.77487983944882762E+03   9.79989269293970574E+03   9.82490454895761104E+03
             9.84991548714320743E+03   9.87492559056022401E+03   9.89993494147014644E+03   9.92494361812992247E+03   9.94995169884067764E+03
             9.97495926498118024E+03   9.99996639820053861E+03   1.00249731801345006E+04   1.00499796952475499E+04   1.00749860332399749E+04
             1.00999922880404301E+04   1.01249985522258903E+04   1.01500049141985801E+04   1.01750114637462721E+04   1.02000182938166927E+04
             1.02250254960332550E+04   1.02500331606813743E+04   1.02750413773566925E+04   1.03000502346101839E+04   1.03250598191984445E+04
             1.03500702135061292E+04   1.03750814997822581E+04   1.04000937655730631E+04   1.04251070980105542E+04   1.04501215823469192E+04
             1.04751373052753406E+04   1.05001543528010188E+04   1.05251728088675318E+04   1.05501927565540882E+04   1.05752142797476081E+04
             1.06002374713589816E+04   1.06252624637514691E+04   1.06502895021109798E+04   1.06753191247807172E+04   1.07003525961377927E+04
             1.07253928866105089E+04   1.07504466608742332E+04   1.07755280911696173E+04   1.08006656715533736E+04   1.08259136386892951E+04
             1.08513697044803430E+04   1.08772004391111550E+04   1.09036745178481542E+04   1.09312016258177064E+04   1.09603706602883667E+04
             1.09919744111230666E+04   1.10270005285184998E+04   1.10665667759086537E+04   1.11117915841130471E+04   1.11636210568147999E+04
             1.12226632064907772E+04   1.12890834463150823E+04   1.13625866157602213E+04   1.14424911219681926E+04   1.15278593605395890E+04
             1.16176345044153022E+04   1.17107809824958131E+04   1.18063723087656908E+04   1.19036515506275518E+04   1.20020383590988185E+04
             1.21011167678614474E+04   1.22006068540982506E+04   1.23003312180451430E+04   1.24001837704092304E+04   1.25001043688765549E+04
             1.26000605627210298E+04   1.27000355028456179E+04   1.28000205191869536E+04   1.29000112618123312E+04   1.30000056390223672E+04
             1.31000024579657984E+04   1.32000008390039529E+04   1.33000001311566430E+04   1.33999998924924494E+04   1.34999998577920851E+04
             1.35999998898141803E+04   1.36999999298244584E+04   1.37999999594999681E+04   1.38999999773519412E+04   1.39999999868104314E+04
             1.40999999914496439E+04   1.41999999937064658E+04   1.42999999949308603E+04   1.43999999957582295E+04   1.44999999964397375E+04
             1.45999999970529534E+04   1.46999999976111303E+04   1.47999999981013243E+04   1.48999999984762326E+04   1.49999999987910996E+04
             1.50999999990491833E+04   1.51999999992576231E+04   1.52999999994241170E+04   1.53999999995558937E+04   1.54999999996594652E+04
             1.55999999997402447E+04   1.56999999998029252E+04   1.57999999998511958E+04   1.58999999998882013E+04   1.59999999999163538E+04
             1.60999999999377087E+04   1.61999999999538086E+04   1.62999999999658958E+04   1.63999999999748579E+04   1.64999999999815191E+04
             1.65999999999864194E+04   1.66999999999900429E+04   1.67999999999927531E+04   1.68999999999947686E+04   1.69999999999961910E+04
             1.70999999999972242E+04   1.71999999999979664E+04   1.72999999999985266E+04   1.73999999999989377E+04   1.74999999999992469E+04
             1.75999999999994398E+04   1.76999999999995962E+04   1.77999999999997235E+04   1.78999999999998035E+04   1.79999999999998690E+04
             1.80999999999999345E+04   1.81999999999999818E+04   1.82999999999999563E+04   1.83999999999999491E+04   1.84999999999999709E+04
             1.85999999999999964E+04   1.86999999999999818E+04   1.88000000000000109E+04   1.88999999999999964E+04   1.90000000000000000E+04
             1.90999999999999927E+04   1.92000000000000036E+04   1.93000000000000255E+04   1.94000000000000146E+04   1.95000000000000000E+04
             1.95999999999999818E+04   1.96999999999999927E+04   1.98000000000000000E+04   1.99000000000000000E+04   2.00000000000000000E+04
             2.01000000000000000E+04
 ETA=   10   1.00000000000000000E+02   2.00000000000000000E+02   3.00000000000000000E+02   4.00000000000000000E+02   5.00000000000000000E+02
             6.00000000000000000E+02   7.00000000000000568E+02   8.00000000000000909E+02   9.00000000000000796E+02   1.00000000000000136E+03
             1.10000000000000318E+03   1.20000000000000273E+03   1.30000000000000250E+03   1.40000000000000364E+03   1.50000000000000296E+03
             1.60000000000000387E+03   1.70000000000000819E+03   1.80000000000001432E+03   1.90000000000002456E+03   2.00000000000003479E+03
             2.10000000000005002E+03   2.20000000000007049E+03   2.30000000000011005E+03   2.40000000000015507E+03   2.50000000000021873E+03
             2.60000000000031241E+03   2.70000000000045338E+03   2.80000000000064938E+03   2.90000000000093496E+03   3.00000000000135469E+03
             3.10000000000195359E+03   3.20000000000281079E+03   3.30000000000404088E+03   3.40000000000580940E+03   3.50000000000834507E+03
             3.60000000001195849E+03   3.70000000001710123E+03   3.80000000002440947E+03   3.90000000003475634E+03   4.00000000004939375E+03
             4.10000000007001927E+03   4.20000000009897121E+03   4.30000000013945373E+03   4.40000000019580330E+03   4.50000000027395527E+03
             4.60000000038187409E+03   4.70000000053023632E+03   4.80000000073325555E+03   4.90000000100979287E+03   5.00000000138468658E+03
             5.10000000189041202E+03   5.20000000256894145E+03   5.30000000347367495E+03   5.40000000467110931E+03   5.50000000624115819E+03
             5.60000000827444546E+03   5.70000001111257279E+03   5.80000001485001576E+03   5.90000001992692432E+03   6.00000002695052990E+03
             6.10000003670715341E+03   6.20000004994095252E+03   6.30000006653794571E+03   6.40000008346367849E+03   6.50000009052244332E+03
             6.60000006295178810E+03   6.69999995031476101E+03   6.79999966218049758E+03   6.89999905205351934E+03   6.99999789897505525E+03
             7.09999584808822510E+03   7.19999254585837207E+03   7.29998755621075088E+03   7.39997539037470415E+03   7.49995872415348640E+03
             7.59993232369933139E+03   7.69988730726651829E+03   7.79980670617006763E+03   7.89965801404593640E+03   7.99938107101467995E+03
             8.09886981066414319E+03   8.19794722938223640E+03   8.29633418745782001E+03   8.39361581764902076E+03   8.48921387389388292E+03
             8.58236769426255523E+03   8.67215175566980179E+03   8.75752870730664654E+03   8.83744400806837257E+03   8.91095674607495312E+03
             8.97738312696899084E+03   9.03642702832355826E+03   9.08825209964142232E+03   9.13346752194026158E+03   9.17302228857346017E+03
             9.20803748583211018E+03   9.23963252395734889E+03   9.26879560112986110E+03   9.29631923284473669E+03   9.32279166243196960E+03
             9.34862185749782657E+03   9.37407790181387099E+03   9.39932597297046414E+03   9.42446357212822295E+03   9.44954485874543934E+03
             9.47459832223624653E+03   9.49963816245164890E+03   9.52467109215617529E+03   9.54970013267184368E+03   9.57472658789383604E+03
             9.59975101772147900E+03   9.62477367783028967E+03   9.64979470606913674E+03   9.67481419781257682E+03   9.69983223635365357E+03
             9.72484890364271996E+03   9.74986428408889878E+03   9.77487846450306643E+03   9.79989153109055042E+03   9.82490356821649220E+03
             9.84991466055441560E+03   9.87492489425879103E+03   9.89993435452882659E+03   9.92494312397877184E+03   9.94995128497903352E+03
             9.97495892168139108E+03   9.99996611877334362E+03   1.00249729612846040E+04   1.00499795362857585E+04   1.00749859343446460E+04
             1.00999922487759832E+04   1.01249985720504319E+04   1.01500049940893641E+04   1.01750116057553605E+04   1.02000185000948422E+04
             1.02250257697993948E+04   1.02500335071441987E+04   1.02750418042565198E+04   1.03000507526594083E+04   1.03250604427212911E+04
             1.03500709624229057E+04   1.03750824001060846E+04   1.04000948476863996E+04   1.04251083973355871E+04   1.04501231405333619E+04
             1.04751391699080359E+04   1.05001565777862470E+04   1.05251754552913080E+04   1.05501958933606402E+04   1.05752179847573643E+04
             1.06002418327597006E+04   1.06252675805677154E+04   1.06502954857427267E+04   1.06753261046840034E+04   1.07003607309899598E+04
             1.07254023657612870E+04   1.07504576991904651E+04   1.07755409058422629E+04   1.08006804432521494E+04   1.08259304339454520E+04
             1.08513883424696742E+04   1.08772203146454704E+04   1.09036944104853137E+04   1.09312195762122046E+04   1.09603840270001747E+04
             1.09919802443400185E+04   1.10269963841056415E+04   1.10665518192576219E+04   1.11117675207877855E+04   1.11635921672475470E+04
             1.12226349318001794E+04   1.12890601441705985E+04   1.13625709051135727E+04   1.14424834983626952E+04   1.15278580620116736E+04
             1.16176376478726343E+04   1.17107861710978959E+04   1.18063782079232751E+04   1.19036570234112460E+04   1.20020428243827555E+04
             1.21011200717081265E+04   1.22006090989757813E+04   1.23003326230487437E+04   1.24001845825089586E+04   1.25001048043071769E+04
             1.26000607822206275E+04   1.27000356115547456E+04   1.28000205669542593E+04   1.29000112641516425E+04   1.30000056093741514E+04
             1.31000024135202166E+04   1.32000007933725301E+04   1.33000000925014447E+04   1.33999998641310176E+04   1.34999998396303963E+04
             1.35999998799008627E+04   1.36999999256314259E+04   1.37999999587375696E+04   1.38999999783237272E+04   1.39999999884424742E+04
             1.40999999931588154E+04   1.41999999952318431E+04   1.42999999961926533E+04   1.43999999967628009E+04   1.44999999972252790E+04
             1.45999999976630879E+04   1.46999999980847078E+04   1.47999999984705682E+04   1.48999999987637257E+04   1.49999999990141259E+04
             1.50999999992216162E+04   1.51999999993904494E+04   1.52999999995260168E+04   1.53999999996337501E+04   1.54999999997187042E+04
             1.55999999997851410E+04   1.56999999998368166E+04   1.57999999998766871E+04   1.58999999999073043E+04   1.59999999999306201E+04
             1.60999999999483261E+04   1.61999999999616866E+04   1.62999999999717147E+04   1.63999999999791544E+04   1.64999999999846768E+04
             1.65999999999887259E+04   1.66999999999917236E+04   1.67999999999939719E+04   1.68999999999956563E+04   1.69999999999968350E+04
             1.70999999999976899E+04   1.71999999999983047E+04   1.72999999999987631E+04   1.73999999999991123E+04   1.74999999999993706E+04
             1.75999999999995234E+04   1.76999999999996508E+04   1.77999999999997635E+04   1.78999999999998363E+04   1.79999999999998836E+04
             1.80999999999999454E+04   1.81999999999999927E+04   1.82999999999999636E+04   1.83999999999999527E+04   1.84999999999999782E+04
             1.85999999999999964E+04   1.86999999999999891E+04   1.88000000000000109E+04   1.88999999999999927E+04   1.89999999999999891E+04
             1.90999999999999891E+04   1.92000000000000036E+04   1.93000000000000218E+04   1.94000000000000073E+04   1.95000000000000000E+04
             1.95999999999999854E+04   1.96999999999999927E+04   1.98000000000000000E+04   1.99000000000000000E+04   2.00000000000000000E+04
             2.01000000000000000E+04
 ETA=   11   1.00000000000000000E+02   2.00000000000000000E+02   3.00000000000000000E+02   4.00000000000000000E+02   5.00000000000000000E+02
             6.00000000000000000E+02   7.00000000000000455E+02   8.00000000000000909E+02   9.00000000000001023E+02   1.00000000000000136E+03
             1.10000000000000273E+03   1.20000000000000250E+03   1.30000000000000205E+03   1.40000000000000273E+03   1.50000000000000250E+03
             1.60000000000000227E+03   1.70000000000000568E+03   1.80000000000001091E+03   1.90000000000001933E+03   2.00000000000002728E+03
             2.10000000000003911E+03   2.20000000000005275E+03   2.30000000000008413E+03   2.40000000000011732E+03   2.50000000000016462E+03
             2.60000000000023283E+03   2.70000000000033879E+03   2.80000000000048340E+03   2.90000000000069440E+03   3.00000000000100908E+03
             3.10000000000145519E+03   3.20000000000209548E+03   3.30000000000301497E+03   3.40000000000433920E+03   3.50000000000624004E+03
             3.60000000000894897E+03   3.70000000001280659E+03   3.80000000001828948E+03   3.90000000002605111E+03   4.00000000003703326E+03
             4.10000000005250513E+03   4.20000000007420749E+03   4.30000000010451913E+03   4.40000000014663965E+03   4.50000000020495645E+03
             4.60000000028531667E+03   4.70000000039554106E+03   4.80000000054600969E+03   4.90000000075048047E+03   5.00000000102706508E+03
             5.10000000139947952E+03   5.20000000189843104E+03   5.30000000256304247E+03   5.40000000344201726E+03   5.50000000459353669E+03
             5.60000000608310984E+03   5.70000000822185666E+03   5.80000001108026299E+03   5.90000001507661636E+03   6.00000002081519051E+03
             6.10000002912311993E+03   6.20000004088277637E+03   6.30000005632404736E+03   6.40000007316135816E+03   6.50000008267068279E+03
             6.60000006269585538E+03   6.69999996691486103E+03   6.79999971057883886E+03   6.89999915374062584E+03   6.99999808039280560E+03
             7.09999612393596908E+03   7.19999294753733739E+03   7.29998812872563212E+03   7.39997565835044952E+03   7.49995875257657917E+03
             7.59993211760812392E+03   7.69988680769911844E+03   7.79980579642272187E+03   7.89965652721229435E+03   7.99937881192369514E+03
             8.09886660428644063E+03   8.19794301628075300E+03   8.29632915386573404E+03   8.39361050198235353E+03   8.48920892747209291E+03
             8.58236472220198630E+03   8.67215281592557403E+03   8.75753571730782278E+03   8.83745821851468645E+03   8.91097774285391461E+03
             8.97740867735432039E+03   9.03645306029994936E+03   9.08827385299231537E+03   9.13348126702873196E+03   9.17302642916162768E+03
             9.20803266273502231E+03   9.23962085743443458E+03   9.26877970385466324E+03   9.29630147787780516E+03   9.32277383068513336E+03
             9.34860507846934706E+03   9.37406275536123394E+03   9.39931264986124734E+03   9.42445202863562008E+03   9.44953493552412510E+03
             9.47458981975854294E+03   9.49963088180263185E+03   9.52466485476912567E+03   9.54969478529294975E+03   9.57472200364986929E+03
             9.59974708984142126E+03   9.62477031488249486E+03   9.64979182943497472E+03   9.67481174021722472E+03   9.69983014008976897E+03
             9.72484711890981998E+03   9.74986276730290956E+03   9.77487717701563270E+03   9.79989043914927606E+03   9.82490264326122633E+03
             9.84991387843907978E+03   9.87492423387050985E+03   9.89993379758113770E+03   9.92494265577114129E+03   9.94995089422499223E+03
             9.97495859965596355E+03   9.99996585929312096E+03   1.00249727608042122E+04   1.00499793932941138E+04   1.00749858481539013E+04
             1.00999922185151700E+04   1.01249985970640810E+04   1.01500050751104864E+04   1.01750117446989825E+04   1.02000186994338765E+04
             1.02250260331205700E+04   1.02500338396944426E+04   1.02750422133181401E+04   1.03000512480008565E+04   1.03250610372674455E+04
             1.03500716737215171E+04   1.03750832507929954E+04   1.04000958645610062E+04   1.04251096119320737E+04   1.04501245900031408E+04
             1.04751408969488875E+04   1.05001586310953226E+04   1.05251778903462418E+04   1.05501987730305791E+04   1.05752213802980714E+04
             1.06002458253144705E+04   1.06252722622712026E+04   1.06503009617795124E+04   1.06753324980786401E+04   1.07003681892641671E+04
             1.07254110626393067E+04   1.07504678284370821E+04   1.07755526610461766E+04   1.08006939789930093E+04   1.08259457922213915E+04
             1.08514053335539884E+04   1.08772383607654028E+04   1.09037123821818204E+04   1.09312356898014350E+04   1.09603959066552197E+04
             1.09919852745940098E+04   1.10269924410119511E+04   1.10665382431942453E+04   1.11117458933704911E+04   1.11635662786168177E+04
             1.12226095565919804E+04   1.12890391370165216E+04   1.13625565623391794E+04   1.14424762840158892E+04   1.15278565418739927E+04
             1.16176401653280045E+04   1.17107905930457655E+04   1.18063833326607109E+04   1.19036618467810094E+04   1.20020468163471633E+04
             1.21011230739744406E+04   1.22006111816841039E+04   1.23003339653291059E+04   1.24001853931307487E+04   1.25001052679119221E+04
             1.26000610362482348E+04   1.27000357481115479E+04   1.28000206347992262E+04   1.29000112836207700E+04   1.30000055966209220E+04
             1.31000023852715713E+04   1.32000007620248743E+04   1.33000000653655479E+04   1.33999998442987526E+04   1.34999998273006095E+04
[...]
             6.74986040312008754E+02   6.74973665988619246E+02   6.74956357991621985E+02   6.74934892983121131E+02   6.74911958512181968E+02
             6.74891139096822030E+02   6.74876854018972494E+02   6.74875506899266384E+02   6.74893169990379647E+02   6.74931398759450644E+02
             6.74986438365645540E+02   6.75049523328529403E+02   6.75108727650170408E+02   6.75153452458021661E+02   6.75178339062581017E+02
             6.75183953674799682E+02   6.75174403730303084E+02   6.75155249100557967E+02   6.75131673647010075E+02   6.75107434927776012E+02
             6.75084876823538252E+02   6.75065245765924374E+02   6.75049068875310240E+02   6.75036310622298402E+02   6.75026472839935423E+02
             6.75018992983891735E+02   6.75013301134776157E+02   6.75008819145975053E+02   6.75005295702771377E+02   6.75002610661469589E+02
             6.75000551000798623E+02   6.74998958624120064E+02   6.74997721147779430E+02   6.74996762432914011E+02   6.74996030339542017E+02
             6.74995482154687579E+02   6.74995076375585768E+02   6.74994774234306306E+02   6.74994544898757567E+02   6.74994367970569556E+02
             6.74994231527097327E+02   6.74994126940858791E+02   6.74994044639879235E+02   6.74993973479180795E+02   6.74993902682527278E+02
             6.74993825127187620E+02   6.74993739698334139E+02   6.74993650386802074E+02   6.74993564561427547E+02   6.74993491574674067E+02
             6.74993439000809417E+02   6.74993409282236030E+02   6.74993399906860418E+02   6.74993406383890601E+02   6.74993425516247953E+02
             6.74993454828804488E+02   6.74993490889387544E+02   6.74993530924472338E+02   6.74993574216567026E+02   6.74993621872706058E+02
             6.74993677978391474E+02   6.74993753189147355E+02   6.74993869681410274E+02   6.74994060739790029E+02   6.74994363623565164E+02
             6.74994814288727298E+02   6.74995447420267737E+02   6.74996298744479873E+02   6.74997406032286790E+02   6.74998813551369381E+02
             6.75000586265384868E+02   6.75002828415218801E+02   6.75005697229627572E+02   6.75009407875430384E+02   6.75014067135486243E+02
             6.75019918851942634E+02   6.75027545435907655E+02   6.75037506204918714E+02   6.75050352177925220E+02   6.75066582238111550E+02
             6.75086184385753086E+02   6.75108589530585164E+02   6.75132665050885862E+02   6.75156185723410204E+02   6.75175392641024814E+02
             6.75184915430627825E+02   6.75179128243524701E+02   6.75153963710428570E+02   6.75108784277423410E+02   6.75048752171375668E+02
             6.74984556255687721E+02   6.74928777635256665E+02   6.74890877743154874E+02   6.74874164989320093E+02   6.74875666769571694E+02
             6.74889317746279971E+02   6.74910434642032328E+02   6.74934489172048984E+02   6.74956752174291296E+02   6.74974672426526354E+02
             6.74987501027013991E+02   6.74995657276884799E+02   6.75000141904683801E+02   6.75002118242322695E+02   6.75002639788341639E+02
             6.75002495184668533E+02   6.75002172496678554E+02   6.75001881338191538E+02   6.75001629180152690E+02   6.75001366061894373E+02
             6.75001083163668568E+02   6.75000808177452427E+02   6.75000571003699747E+02   6.75000387188248737E+02   6.75000256869210602E+02
             6.75000170778377310E+02   6.75000116661761808E+02   6.75000083388343683E+02   6.75000062632305799E+02   6.75000048964755138E+02
             6.75000039221602947E+02   6.75000031729714578E+02   6.75000025671868570E+02   6.75000020663330133E+02   6.75000016510266960E+02
             6.75000013090646917E+02   6.75000010304772786E+02   6.75000008059912830E+02   6.75000006269208029E+02   6.75000004852874326E+02
             6.75000003739903832E+02   6.75000002870070148E+02   6.75000002193580940E+02   6.75000001669899802E+02   6.75000001266339041E+02
             6.75000000956706458E+02   6.75000000720152684E+02   6.75000000540173801E+02   6.75000000403785066E+02   6.75000000300829129E+02
             6.75000000223397478E+02   6.75000000165378083E+02   6.75000000122056349E+02   6.75000000089821469E+02   6.75000000065913923E+02
             6.75000000048234028E+02   6.75000000035191078E+02   6.75000000025602162E+02   6.75000000018583478E+02   6.75000000013456770E+02
             6.75000000009721020E+02   6.75000000007006179E+02   6.75000000005031893E+02   6.75000000003607170E+02   6.75000000002582851E+02
             6.75000000001844796E+02   6.75000000001312173E+02   6.75000000000926093E+02   6.75000000000651653E+02   6.75000000000459409E+02
             6.75000000000326509E+02   6.75000000000232944E+02   6.75000000000161322E+02   6.75000000000107661E+02   6.75000000000074465E+02
             6.75000000000054683E+02   6.75000000000038540E+02   6.75000000000026944E+02   6.75000000000019213E+02   6.75000000000012164E+02
             6.75000000000005912E+02   6.75000000000003070E+02   6.75000000000002615E+02   6.75000000000002274E+02   6.75000000000002274E+02
             6.75000000000001364E+02   6.75000000000000682E+02   6.75000000000000000E+02   6.75000000000000000E+02   6.75000000000000000E+02
             6.75000000000000000E+02
 ETA=   25   7.00000000000000000E+02   7.00000000000000000E+02   7.00000000000000000E+02   7.00000000000000000E+02   7.00000000000000000E+02
             7.00000000000000000E+02   7.00000000000000114E+02   7.00000000000000227E+02   7.00000000000000114E+02   7.00000000000000455E+02
             7.00000000000001592E+02   7.00000000000002956E+02   7.00000000000004889E+02   7.00000000000007276E+02   7.00000000000011141E+02
             7.00000000000015802E+02   7.00000000000023874E+02   7.00000000000036039E+02   7.00000000000052978E+02   7.00000000000077762E+02
             7.00000000000113687E+02   7.00000000000165528E+02   7.00000000000240789E+02   7.00000000000349814E+02   7.00000000000505906E+02
             7.00000000000730438E+02   7.00000000001053991E+02   7.00000000001518515E+02   7.00000000002184606E+02   7.00000000003138894E+02
             7.00000000004504386E+02   7.00000000006455480E+02   7.00000000009238988E+02   7.00000000013202111E+02   7.00000000018837682E+02
             7.00000000026836233E+02   7.00000000038166036E+02   7.00000000054184056E+02   7.00000000076780111E+02   7.00000000108585027E+02
             7.00000000153245992E+02   7.00000000215798536E+02   7.00000000303173010E+02   7.00000000424863629E+02   7.00000000593822733E+02
             7.00000000827640520E+02   7.00000001150081403E+02   7.00000001593076945E+02   7.00000002199276537E+02   7.00000003025296110E+02
             7.00000004145787784E+02   7.00000005658475175E+02   7.00000007690293046E+02   7.00000010404751606E+02   7.00000014010539303E+02
             7.00000018771017267E+02   7.00000025024102911E+02   7.00000033198027040E+02   7.00000043835006636E+02   7.00000057637924442E+02
             7.00000075530014215E+02   7.00000098737437725E+02   7.00000128878237661E+02   7.00000167998005622E+02   7.00000218424283389E+02
             7.00000282232277755E+02   7.00000359993693905E+02   7.00000448175676411E+02   7.00000533546098836E+02   7.00000576418023684E+02
             7.00000594198029034E+02   7.00000635019753872E+02   7.00000561413135983E+02   7.00000472202251444E+02   7.00000544072846992E+02
             7.00000627710802746E+02   7.00000507458520133E+02   6.99999872952119517E+02   6.99998277881440686E+02   6.99995110495261315E+02
             6.99989626773957639E+02   6.99981116356075745E+02   6.99969233634028683E+02   6.99954434108598889E+02   6.99938434188283622E+02
             6.99923591037657388E+02   6.99912866109883453E+02   6.99910593350689737E+02   6.99921073564199787E+02   6.99945732235174660E+02
             6.99982608003809446E+02   7.00026373370628107E+02   7.00069057133668025E+02   7.00102841763636093E+02   7.00123098260771712E+02
             7.00129381309346059E+02   7.00123968367548400E+02   7.00110707853435883E+02   7.00093578348590427E+02   7.00075650262552131E+02
             7.00058903648523483E+02   7.00044360634974055E+02   7.00032549673641370E+02   7.00023502012876179E+02   7.00016737846739943E+02
             7.00011772950853015E+02   7.00008131759815569E+02   7.00005311288299140E+02   7.00003135156493045E+02   7.00001542510664535E+02
             7.00000357723429147E+02   6.99999460156176383E+02   6.99998769933790641E+02   6.99998238655977957E+02   6.99997837633706240E+02
             6.99997543591763929E+02   6.99997330759237343E+02   6.99997173106844912E+02   6.99997050519002187E+02   6.99996951938799157E+02
             6.99996873595768875E+02   6.99996813654573998E+02   6.99996767805616969E+02   6.99996728676414591E+02   6.99996687781683022E+02
             6.99996638911907894E+02   6.99996580935045358E+02   6.99996517550716703E+02   6.99996455929811418E+02   6.99996405129550681E+02
             6.99996372066851450E+02   6.99996358423526090E+02   6.99996361454254725E+02   6.99996376992154637E+02   6.99996402118049673E+02
             6.99996434362930927E+02   6.99996470013243083E+02   6.99996505559503248E+02   6.99996538955886876E+02   6.99996568836735150E+02
             6.99996595021854432E+02   6.99996622189579398E+02   6.99996665154331254E+02   6.99996748063190353E+02   6.99996896651084057E+02
             6.99997133562358954E+02   6.99997479249787602E+02   6.99997953936236854E+02   6.99998577694465439E+02   6.99999373721140842E+02
             7.00000381373316827E+02   7.00001674239735621E+02   7.00003374228164944E+02   7.00005662052005960E+02   7.00008586888772811E+02
             7.00012319908273980E+02   7.00017371113743366E+02   7.00024204930919836E+02   7.00033295174329510E+02   7.00045146612145345E+02
             7.00059668528373322E+02   7.00076277068883655E+02   7.00094056074751279E+02   7.00111150374529757E+02   7.00124508106352209E+02
             7.00129978661724863E+02   7.00123602786813080E+02   7.00103194641654227E+02   7.00069202066266257E+02   7.00026020498357070E+02
             6.99981540837549119E+02   6.99944198210202671E+02   6.99919791575154022E+02   6.99909936130533538E+02   6.99912254767566310E+02
             6.99922515298550138E+02   6.99937505393951369E+02   6.99954183108263123E+02   6.99969456716129230E+02   6.99981699395288388E+02
             6.99990466916744026E+02   6.99996077935045719E+02   6.99999222504560976E+02   7.00000684517016111E+02   7.00001165408923043E+02
             7.00001186837222804E+02   7.00001070616213383E+02   7.00000956541730488E+02   7.00000853732666997E+02   7.00000732773182790E+02
             7.00000588822346003E+02   7.00000440671289425E+02   7.00000309528377670E+02   7.00000207357450563E+02   7.00000135511362259E+02
             7.00000088802222081E+02   7.00000060016591192E+02   7.00000042674381348E+02   7.00000032040782685E+02   7.00000025108105774E+02
             7.00000020171152414E+02   7.00000016355771891E+02   7.00000013250647271E+02   7.00000010670360780E+02   7.00000008524503869E+02
             7.00000006755487902E+02   7.00000005314123882E+02   7.00000004152997121E+02   7.00000003227516913E+02   7.00000002496500429E+02
             7.00000001922737397E+02   7.00000001474752594E+02   7.00000001126606548E+02   7.00000000857262194E+02   7.00000000649808158E+02
             7.00000000490717412E+02   7.00000000369232225E+02   7.00000000276844503E+02   7.00000000206864229E+02   7.00000000154060217E+02
             7.00000000114362933E+02   7.00000000084630528E+02   7.00000000062438858E+02   7.00000000045933916E+02   7.00000000033697688E+02
             7.00000000024651513E+02   7.00000000017979460E+02   7.00000000013075692E+02   7.00000000009488076E+02   7.00000000006869072E+02
             7.00000000004961635E+02   7.00000000003575451E+02   7.00000000002565457E+02   7.00000000001837861E+02   7.00000000001316039E+02
             7.00000000000941100E+02   7.00000000000669843E+02   7.00000000000472028E+02   7.00000000000331397E+02   7.00000000000232603E+02
             7.00000000000166096E+02   7.00000000000119144E+02   7.00000000000081172E+02   7.00000000000053660E+02   7.00000000000037858E+02
             7.00000000000028081E+02   7.00000000000019554E+02   7.00000000000014097E+02   7.00000000000010004E+02   7.00000000000005684E+02
             7.00000000000002160E+02   7.00000000000001819E+02   7.00000000000001364E+02   7.00000000000000796E+02   7.00000000000001137E+02
             7.00000000000000682E+02   7.00000000000000341E+02   7.00000000000000000E+02   7.00000000000000000E+02   7.00000000000000000E+02
             7.00000000000000000E+02
 ETA=   26   7.25000000000000000E+02   7.25000000000000000E+02   7.25000000000000000E+02   7.25000000000000000E+02   7.25000000000000000E+02
             7.25000000000000000E+02   7.25000000000000000E+02   7.25000000000000000E+02   7.25000000000000000E+02   7.25000000000000000E+02
             7.25000000000000000E+02   7.25000000000000000E+02   7.25000000000000000E+02   7.25000000000000000E+02   7.25000000000000000E+02
             7.25000000000000000E+02   7.25000000000000000E+02   7.25000000000000000E+02   7.25000000000000000E+02   7.25000000000000000E+02
             7.25000000000000000E+02   7.25000000000000000E+02   7.25000000000000000E+02   7.25000000000000000E+02   7.25000000000000000E+02
             7.25000000000000000E+02   7.25000000000000000E+02   7.25000000000000000E+02   7.25000000000000000E+02   7.25000000000000000E+02
             7.25000000000000000E+02   7.25000000000000000E+02   7.25000000000000000E+02   7.25000000000000000E+02   7.25000000000000000E+02
             7.25000000000000000E+02   7.25000000000000000E+02   7.25000000000000000E+02   7.25000000000000000E+02   7.25000000000000000E+02
             7.25000000000000000E+02   7.25000000000000000E+02   7.25000000000000000E+02   7.25000000000000000E+02   7.25000000000000000E+02
             7.25000000000000000E+02   7.25000000000000000E+02   7.25000000000000000E+02   7.25000000000000000E+02   7.25000000000000000E+02
             7.25000000000000000E+02   7.25000000000000000E+02   7.25000000000000000E+02   7.25000000000000000E+02   7.25000000000000000E+02
             7.25000000000000000E+02   7.25000000000000000E+02   7.25000000000000000E+02   7.25000000000000000E+02   7.25000000000000000E+02
             7.25000000000000000E+02   7.25000000000000000E+02   7.25000000000000000E+02   7.25000000000000000E+02   7.25000000000000000E+02
             7.25000000000000000E+02   7.25000000000000000E+02   7.25000000000000000E+02   7.25000000000000000E+02   7.25000000000000000E+02
             7.25000000000000000E+02   7.25000000000000000E+02   7.25000000000000000E+02   7.25000000000000000E+02   7.25000000000000000E+02
             7.25000000000000000E+02   7.25000000000000000E+02   7.25000000000000000E+02   7.25000000000000000E+02   7.25000000000000000E+02
             7.25000000000000000E+02   7.25000000000000000E+02   7.25000000000000000E+02   7.25000000000000000E+02   7.25000000000000000E+02
             7.25000000000000000E+02   7.25000000000000000E+02   7.25000000000000000E+02   7.25000000000000000E+02   7.25000000000000000E+02
             7.25000000000000000E+02   7.25000000000000000E+02   7.25000000000000000E+02   7.25000000000000000E+02   7.25000000000000000E+02
             7.25000000000000000E+02   7.25000000000000000E+02   7.25000000000000000E+02   7.25000000000000000E+02   7.25000000000000000E+02
             7.25000000000000000E+02   7.25000000000000000E+02   7.25000000000000000E+02   7.25000000000000000E+02   7.25000000000000000E+02
             7.25000000000000000E+02   7.25000000000000000E+02   7.25000000000000000E+02   7.25000000000000000E+02   7.25000000000000000E+02
             7.25000000000000000E+02   7.25000000000000000E+02   7.25000000000000000E+02   7.25000000000000000E+02   7.25000000000000000E+02
             7.25000000000000000E+02   7.25000000000000000E+02   7.25000000000000000E+02   7.25000000000000000E+02   7.25000000000000000E+02
             7.25000000000000000E+02   7.25000000000000000E+02   7.25000000000000000E+02   7.25000000000000000E+02   7.25000000000000000E+02
             7.25000000000000000E+02   7.25000000000000000E+02   7.25000000000000000E+02   7.25000000000000000E+02   7.25000000000000000E+02
             7.25000000000000000E+02   7.25000000000000000E+02   7.25000000000000000E+02   7.25000000000000000E+02   7.25000000000000000E+02
             7.25000000000000000E+02   7.25000000000000000E+02   7.25000000000000000E+02   7.25000000000000000E+02   7.25000000000000000E+02
             7.25000000000000000E+02   7.25000000000000000E+02   7.25000000000000000E+02   7.25000000000000000E+02   7.25000000000000000E+02
             7.25000000000000000E+02   7.25000000000000000E+02   7.25000000000000000E+02   7.25000000000000000E+02   7.25000000000000000E+02
             7.25000000000000000E+02   7.25000000000000000E+02   7.25000000000000000E+02   7.25000000000000000E+02   7.25000000000000000E+02
             7.25000000000000000E+02   7.25000000000000000E+02   7.25000000000000000E+02   7.25000000000000000E+02   7.25000000000000000E+02
             7.25000000000000000E+02   7.25000000000000000E+02   7.25000000000000000E+02   7.25000000000000000E+02   7.25000000000000000E+02
             7.25000000000000000E+02   7.25000000000000000E+02   7.25000000000000000E+02   7.25000000000000000E+02   7.25000000000000000E+02
             7.25000000000000000E+02   7.25000000000000000E+02   7.25000000000000000E+02   7.25000000000000000E+02   7.25000000000000000E+02
             7.25000000000000000E+02   7.25000000000000000E+02   7.25000000000000000E+02   7.25000000000000000E+02   7.25000000000000000E+02
             7.25000000000000000E+02   7.25000000000000000E+02   7.25000000000000000E+02   7.25000000000000000E+02   7.25000000000000000E+02
             7.25000000000000000E+02   7.25000000000000000E+02   7.25000000000000000E+02   7.25000000000000000E+02   7.25000000000000000E+02
             7.25000000000000000E+02   7.25000000000000000E+02   7.25000000000000000E+02   7.25000000000000000E+02   7.25000000000000000E+02
             7.25000000000000000E+02   7.25000000000000000E+02   7.25000000000000000E+02   7.25000000000000000E+02   7.25000000000000000E+02
             7.25000000000000000E+02   7.25000000000000000E+02   7.25000000000000000E+02   7.25000000000000000E+02   7.25000000000000000E+02
             7.25000000000000000E+02   7.25000000000000000E+02   7.25000000000000000E+02   7.25000000000000000E+02   7.25000000000000000E+02
             7.25000000000000000E+02   7.25000000000000000E+02   7.25000000000000000E+02   7.25000000000000000E+02   7.25000000000000000E+02
             7.25000000000000000E+02   7.25000000000000000E+02   7.25000000000000000E+02   7.25000000000000000E+02   7.25000000000000000E+02
             7.25000000000000000E+02   7.25000000000000000E+02   7.25000000000000000E+02   7.25000000000000000E+02   7.25000000000000000E+02
             7.25000000000000000E+02   7.25000000000000000E+02   7.25000000000000000E+02   7.25000000000000000E+02   7.25000000000000000E+02
             7.25000000000000000E+02   7.25000000000000000E+02   7.25000000000000000E+02   7.25000000000000000E+02   7.25000000000000000E+02
             7.25000000000000000E+02   7.25000000000000000E+02   7.25000000000000000E+02   7.25000000000000000E+02   7.25000000000000000E+02
             7.25000000000000000E+02   7.25000000000000000E+02   7.25000000000000000E+02   7.25000000000000000E+02   7.25000000000000000E+02
             7.25000000000000000E+02   7.25000000000000000E+02   7.25000000000000000E+02   7.25000000000000000E+02   7.25000000000000000E+02
             7.25000000000000000E+02   7.25000000000000000E+02   7.25000000000000000E+02   7.25000000000000000E+02   7.25000000000000000E+02
             7.25000000000000000E+02   7.25000000000000000E+02   7.25000000000000000E+02   7.25000000000000000E+02   7.25000000000000000E+02
             7.25000000000000000E+02
