===============================================================================
iMODFLOW Version 4_2, October 2017

Copyright (C) Stichting Deltares, 2005-2017.

This Deltares-software executable is part of iMOD. iMOD is Deltares-software;
the source code of iMOD is also available as free open source software at
oss.deltares.nl. You may use the Deltares-software executables of iMOD without
any remuneration to be paid to Deltares if you accepted the iMOD Software
License Agreement (iMOD License) which is offered to you as a PDF-file; you
should have received a copy of this PDF-file with this Deltares-software
executable. If not, see
http://oss.deltares.nl/web/iMOD/iMOD_Software_License_Agreement.
Please go to the PDF-file of the iMOD License, read it and decide whether you
want or do not want to accept the iMOD License.

According to the file "I_accepted_v4_2.txt" on your computer you accepted the
terms and conditions of the iMOD license; WARNING: IF IT WAS NOT YOU OR THE
LEGAL ENTITY ON WHOSE BEHALF YOU INTENT TO USE THE IMOD-EXECUTABLE, THAT
ACCEPTED THE TERMS AND CONDITIONS OF THE iMOD LICENSE YOU ARE NOT ENTITLED TO
USE THIS DELTARES-EXECUTABLE OF IMOD. In this case your use of this
Deltares-executable of the iMOD-software is prohibited and illegal: abort the
use of this Deltares-executable immediately and refrain from using the
Deltares-executables of iMOD. To make use of the Deltares-executables of iMOD
please make sure to accept the terms and conditions or have it lawfully
accepted by the legal entity on whose behalf you intent to use the
iMOD-executable byre-invoking the "I accept"-procedure; to re-invoke the
"I accept"-procedure abort the use of this Deltares-executable of iMOD, delete
the file "I_accepted_v4_2.txt", and invoke this Deltares-executable of iMOD
again.

The iMOD software is distributed in the hope that it will be useful, but
WITHOUT ANY GUARANTEE OR (IMPLIED) WARRANTY. Any use of the
Deltares-executables of the iMOD-software is for your own risk. See the iMOD
License for more details.

For more info, please contact: Stichting Deltares, P.O. Box 177, 2600 MH Delft,
The Netherlands. Email: imod.support@deltares.nl.
===============================================================================

                                  MODFLOW-2005     
      U.S. GEOLOGICAL SURVEY MODULAR FINITE-DIFFERENCE GROUND-WATER FLOW MODEL
                            VERSION 1.8.00 12/18/2009

 LIST FILE: nhi.list
                         UNIT   10

 OPENING nhi.dis                                                                                                                                                                                                                                                                                                     
 FILE TYPE:DIS   UNIT   11   STATUS:OLD    
 FORMAT:FORMATTED              ACCESS:SEQUENTIAL          

 OPENING nhi.bas6                                                                                                                                                                                                                                                                                                    
 FILE TYPE:BAS6   UNIT   12   STATUS:OLD    
 FORMAT:FORMATTED              ACCESS:SEQUENTIAL          

 OPENING nhi.bcf6                                                                                                                                                                                                                                                                                                    
 FILE TYPE:BCF6   UNIT   13   STATUS:OLD    
 FORMAT:FORMATTED              ACCESS:SEQUENTIAL          

 OPENING nhi.oc                                                                                                                                                                                                                                                                                                      
 FILE TYPE:OC   UNIT   14   STATUS:OLD    
 FORMAT:FORMATTED              ACCESS:SEQUENTIAL          

 OPENING nhi.met                                                                                                                                                                                                                                                                                                     
 FILE TYPE:MET   UNIT   15   STATUS:OLD    
 FORMAT:FORMATTED              ACCESS:SEQUENTIAL          

 OPENING nhi.riv                                                                                                                                                                                                                                                                                                     
 FILE TYPE:RIV   UNIT   16   STATUS:OLD    
 FORMAT:FORMATTED              ACCESS:SEQUENTIAL          

 OPENING nhi.drn                                                                                                                                                                                                                                                                                                     
 FILE TYPE:DRN   UNIT   17   STATUS:OLD    
 FORMAT:FORMATTED              ACCESS:SEQUENTIAL          

 OPENING nhi.ghb                                                                                                                                                                                                                                                                                                     
 FILE TYPE:GHB   UNIT   18   STATUS:OLD    
 FORMAT:FORMATTED              ACCESS:SEQUENTIAL          

 OPENING nhi.wel                                                                                                                                                                                                                                                                                                     
 FILE TYPE:WEL   UNIT   19   STATUS:OLD    
 FORMAT:FORMATTED              ACCESS:SEQUENTIAL          

 OPENING nhi.ani                                                                                                                                                                                                                                                                                                     
 FILE TYPE:ANI   UNIT   20   STATUS:OLD    
 FORMAT:FORMATTED              ACCESS:SEQUENTIAL          

 OPENING nhi.hfb6                                                                                                                                                                                                                                                                                                    
 FILE TYPE:HFB6   UNIT   21   STATUS:OLD    
 FORMAT:FORMATTED              ACCESS:SEQUENTIAL          

 OPENING nhi.pcg                                                                                                                                                                                                                                                                                                     
 FILE TYPE:PCG   UNIT   22   STATUS:OLD    
 FORMAT:FORMATTED              ACCESS:SEQUENTIAL          

 OPENING nhi.rch                                                                                                                                                                                                                                                                                                     
 FILE TYPE:RCH   UNIT   24   STATUS:OLD    
 FORMAT:FORMATTED              ACCESS:SEQUENTIAL          
# data:                                                                                                                                                                                                                                                                                                     

 BAS -- BASIC PACKAGE, VERSION 7, 5/2/2005 INPUT READ FROM UNIT   12

 DISCRETIZATION INPUT DATA READ FROM UNIT   11
 # Discretization file
    7 LAYERS      1300 ROWS      1200 COLUMNS
    1 STRESS PERIOD(S) IN SIMULATION
 MODEL TIME UNIT IS DAYS
 MODEL LENGTH UNIT IS METERS
  Confining bed flag for each layer:
   1   1   1   1   1   1   0

                     DELR =   250.000    

                     DELC =   250.000    

 TOP ELEVATION OF LAYER 1 =   0.00000    

   MODEL LAYER BOTTOM EL. =   0.00000     FOR LAYER   1

 BOT. EL. OF QUASI-3D BED =   0.00000     FOR LAYER   1

   MODEL LAYER BOTTOM EL. =   0.00000     FOR LAYER   2

 BOT. EL. OF QUASI-3D BED =   0.00000     FOR LAYER   2

   MODEL LAYER BOTTOM EL. =   0.00000     FOR LAYER   3

 BOT. EL. OF QUASI-3D BED =   0.00000     FOR LAYER   3

   MODEL LAYER BOTTOM EL. =   0.00000     FOR LAYER   4

 BOT. EL. OF QUASI-3D BED =   0.00000     FOR LAYER   4

   MODEL LAYER BOTTOM EL. =   0.00000     FOR LAYER   5

 BOT. EL. OF QUASI-3D BED =   0.00000     FOR LAYER   5

   MODEL LAYER BOTTOM EL. =   0.00000     FOR LAYER   6

 BOT. EL. OF QUASI-3D BED =   0.00000     FOR LAYER   6

   MODEL LAYER BOTTOM EL. =   0.00000     FOR LAYER   7


 STRESS PERIOD     LENGTH       TIME STEPS     MULTIPLIER FOR DELT    SS FLAG
 ----------------------------------------------------------------------------
        1         1.000000          1                    1.000         SS

 STEADY-STATE SIMULATION



 
 # Basic Package file                                                            
 THE FREE FORMAT OPTION HAS BEEN SELECTED

 OPENING FILE ON UNIT   99:
 /mnt/d/projecten/datamanagement/rws/BasisRivierbodemLigging/wps_brl_modelling/model/bnd/ibound_l1.idf                                                                                                   
  FILE IDENTIFIED AS IDF

 OPENING FILE ON UNIT   99:
 /mnt/d/projecten/datamanagement/rws/BasisRivierbodemLigging/wps_brl_modelling/model/bnd/ibound_l2.IDF                                                                                                   
  FILE IDENTIFIED AS IDF

 OPENING FILE ON UNIT   99:
 /mnt/d/projecten/datamanagement/rws/BasisRivierbodemLigging/wps_brl_modelling/model/bnd/ibound_l3.idf                                                                                                   
  FILE IDENTIFIED AS IDF

 OPENING FILE ON UNIT   99:
 /mnt/d/projecten/datamanagement/rws/BasisRivierbodemLigging/wps_brl_modelling/model/bnd/ibound_l4.idf                                                                                                   
  FILE IDENTIFIED AS IDF

 OPENING FILE ON UNIT   99:
 /mnt/d/projecten/datamanagement/rws/BasisRivierbodemLigging/wps_brl_modelling/model/bnd/ibound_l5.idf                                                                                                   
  FILE IDENTIFIED AS IDF

 OPENING FILE ON UNIT   99:
 /mnt/d/projecten/datamanagement/rws/BasisRivierbodemLigging/wps_brl_modelling/model/bnd/ibound_l6.idf                                                                                                   
  FILE IDENTIFIED AS IDF

 OPENING FILE ON UNIT   99:
 /mnt/d/projecten/datamanagement/rws/BasisRivierbodemLigging/wps_brl_modelling/model/bnd/ibound_l7.idf                                                                                                   
  FILE IDENTIFIED AS IDF

 AQUIFER HEAD WILL BE SET TO  3.40282E+38 AT ALL NO-FLOW NODES (IBOUND=0).

 OPENING FILE ON UNIT   99:
 /mnt/d/projecten/datamanagement/rws/BasisRivierbodemLigging/wps_brl_modelling/model/shd/sh_01.idf                                                                                                       
  FILE IDENTIFIED AS IDF

 OPENING FILE ON UNIT   99:
 /mnt/d/projecten/datamanagement/rws/BasisRivierbodemLigging/wps_brl_modelling/model/shd/sh_02.idf                                                                                                       
  FILE IDENTIFIED AS IDF

 OPENING FILE ON UNIT   99:
 /mnt/d/projecten/datamanagement/rws/BasisRivierbodemLigging/wps_brl_modelling/model/shd/sh_03.idf                                                                                                       
  FILE IDENTIFIED AS IDF

 OPENING FILE ON UNIT   99:
 /mnt/d/projecten/datamanagement/rws/BasisRivierbodemLigging/wps_brl_modelling/model/shd/sh_04.idf                                                                                                       
  FILE IDENTIFIED AS IDF

 OPENING FILE ON UNIT   99:
 /mnt/d/projecten/datamanagement/rws/BasisRivierbodemLigging/wps_brl_modelling/model/shd/sh_05.idf                                                                                                       
  FILE IDENTIFIED AS IDF

 OPENING FILE ON UNIT   99:
 /mnt/d/projecten/datamanagement/rws/BasisRivierbodemLigging/wps_brl_modelling/model/shd/sh_06.idf                                                                                                       
  FILE IDENTIFIED AS IDF

 OPENING FILE ON UNIT   99:
 /mnt/d/projecten/datamanagement/rws/BasisRivierbodemLigging/wps_brl_modelling/model/shd/sh_07.idf                                                                                                       
  FILE IDENTIFIED AS IDF

 OUTPUT CONTROL IS SPECIFIED ONLY AT TIME STEPS FOR WHICH OUTPUT IS DESIRED
 HEAD PRINT FORMAT CODE IS   0    DRAWDOWN PRINT FORMAT CODE IS   0
 HEADS WILL BE SAVED ON UNIT   30    DRAWDOWNS WILL BE SAVED ON UNIT    0

 BCF -- BLOCK-CENTERED FLOW PACKAGE, VERSION 7, 5/2/2005
         INPUT READ FROM UNIT 13
 STEADY-STATE SIMULATION
 HEAD AT CELLS THAT CONVERT TO DRY=  0.34028E+39
 WETTING CAPABILITY IS NOT ACTIVE
      LAYER  LAYER-TYPE CODE     INTERBLOCK T
      --------------------------------------------
         1            0          0 -- HARMONIC    
         2            0          0 -- HARMONIC    
         3            0          0 -- HARMONIC    
         4            0          0 -- HARMONIC    
         5            0          0 -- HARMONIC    
         6            0          0 -- HARMONIC    
         7            0          0 -- HARMONIC    

 COLUMN TO ROW ANISOTROPY =   1.00000    

 OPENING FILE ON UNIT   99:
 /mnt/d/projecten/datamanagement/rws/BasisRivierbodemLigging/wps_brl_modelling/model/kd/kd1.idf                                                                                                          
  FILE IDENTIFIED AS IDF

 OPENING FILE ON UNIT   99:
 /mnt/d/projecten/datamanagement/rws/BasisRivierbodemLigging/wps_brl_modelling/model/c/c1.idf                                                                                                            
  FILE IDENTIFIED AS IDF

 OPENING FILE ON UNIT   99:
 /mnt/d/projecten/datamanagement/rws/BasisRivierbodemLigging/wps_brl_modelling/model/kd/kd2.idf                                                                                                          
  FILE IDENTIFIED AS IDF

 OPENING FILE ON UNIT   99:
 /mnt/d/projecten/datamanagement/rws/BasisRivierbodemLigging/wps_brl_modelling/model/c/c2.idf                                                                                                            
  FILE IDENTIFIED AS IDF

 OPENING FILE ON UNIT   99:
 /mnt/d/projecten/datamanagement/rws/BasisRivierbodemLigging/wps_brl_modelling/model/kd/kd3.idf                                                                                                          
  FILE IDENTIFIED AS IDF

 OPENING FILE ON UNIT   99:
 /mnt/d/projecten/datamanagement/rws/BasisRivierbodemLigging/wps_brl_modelling/model/c/c3.idf                                                                                                            
  FILE IDENTIFIED AS IDF

 OPENING FILE ON UNIT   99:
 /mnt/d/projecten/datamanagement/rws/BasisRivierbodemLigging/wps_brl_modelling/model/kd/kd4.idf                                                                                                          
  FILE IDENTIFIED AS IDF

 OPENING FILE ON UNIT   99:
 /mnt/d/projecten/datamanagement/rws/BasisRivierbodemLigging/wps_brl_modelling/model/c/c4.idf                                                                                                            
  FILE IDENTIFIED AS IDF

 OPENING FILE ON UNIT   99:
 /mnt/d/projecten/datamanagement/rws/BasisRivierbodemLigging/wps_brl_modelling/model/kd/kd5.idf                                                                                                          
  FILE IDENTIFIED AS IDF

 OPENING FILE ON UNIT   99:
 /mnt/d/projecten/datamanagement/rws/BasisRivierbodemLigging/wps_brl_modelling/model/c/c5.idf                                                                                                            
  FILE IDENTIFIED AS IDF

 OPENING FILE ON UNIT   99:
 /mnt/d/projecten/datamanagement/rws/BasisRivierbodemLigging/wps_brl_modelling/model/kd/kd6.idf                                                                                                          
  FILE IDENTIFIED AS IDF

 OPENING FILE ON UNIT   99:
 /mnt/d/projecten/datamanagement/rws/BasisRivierbodemLigging/wps_brl_modelling/model/c/c6.idf                                                                                                            
  FILE IDENTIFIED AS IDF

 OPENING FILE ON UNIT   99:
 /mnt/d/projecten/datamanagement/rws/BasisRivierbodemLigging/wps_brl_modelling/model/kd/kd7.idf                                                                                                          
  FILE IDENTIFIED AS IDF

 HFB -- HORIZONTAL-FLOW BARRIER PACKAGE, VERSION 7, 5/2/2005.
   INPUT READ FROM UNIT   21
 # Horizontal Flow Barrier Package file
     0 PARAMETERS DEFINE A MAXIMUM OF      0 HORIZONTAL FLOW BARRIERS
      1 HORIZONTAL FLOW BARRIERS NOT DEFINED BY PARAMETERS
 LISTS OF HORIZONTAL FLOW BARRIER CELLS WILL NOT BE PRINTED
          Applying factor instead of hydraulic characteristic


     0 HFB parameters

      1 BARRIERS NOT DEFINED BY PARAMETERS
  DATA IDENTIFIED AS LCD

 OPENING FILE ON UNIT   99:
 /mnt/d/projecten/datamanagement/rws/BasisRivierbodemLigging/wps_brl_modelling/model/hfb/hfb_l4.gen                                                                                                      
  FILE IDENTIFIED AS GEN

 OPENING FILE ON UNIT   99:
 /mnt/d/projecten/datamanagement/rws/BasisRivierbodemLigging/wps_brl_modelling/model/hfb/hfb_l4.gen                                                                                                      
  FILE IDENTIFIED AS GEN

 OPENING FILE ON UNIT   99:
 /mnt/d/projecten/datamanagement/rws/BasisRivierbodemLigging/wps_brl_modelling/model/hfb/hfb_l4.gen                                                                                                      
  FILE IDENTIFIED AS GEN

 OPENING FILE ON UNIT   99:
 /mnt/d/projecten/datamanagement/rws/BasisRivierbodemLigging/wps_brl_modelling/model/hfb/hfb_l5.gen                                                                                                      
  FILE IDENTIFIED AS GEN

 OPENING FILE ON UNIT   99:
 /mnt/d/projecten/datamanagement/rws/BasisRivierbodemLigging/wps_brl_modelling/model/hfb/hfb_l6.gen                                                                                                      
  FILE IDENTIFIED AS GEN

 OPENING FILE ON UNIT   99:
 /mnt/d/projecten/datamanagement/rws/BasisRivierbodemLigging/wps_brl_modelling/model/hfb/hfb_l7.gen                                                                                                      
  FILE IDENTIFIED AS GEN

 OPENING FILE ON UNIT   99:
 /mnt/d/projecten/datamanagement/rws/BasisRivierbodemLigging/wps_brl_modelling/model/hfb/hfb_l4.gen                                                                                                      
  FILE IDENTIFIED AS GEN

 OPENING FILE ON UNIT   99:
 /mnt/d/projecten/datamanagement/rws/BasisRivierbodemLigging/wps_brl_modelling/model/hfb/hfb_l4.gen                                                                                                      
  FILE IDENTIFIED AS GEN

 OPENING FILE ON UNIT   99:
 /mnt/d/projecten/datamanagement/rws/BasisRivierbodemLigging/wps_brl_modelling/model/hfb/hfb_l4.gen                                                                                                      
  FILE IDENTIFIED AS GEN

 OPENING FILE ON UNIT   99:
 /mnt/d/projecten/datamanagement/rws/BasisRivierbodemLigging/wps_brl_modelling/model/hfb/hfb_l5.gen                                                                                                      
  FILE IDENTIFIED AS GEN

 OPENING FILE ON UNIT   99:
 /mnt/d/projecten/datamanagement/rws/BasisRivierbodemLigging/wps_brl_modelling/model/hfb/hfb_l6.gen                                                                                                      
  FILE IDENTIFIED AS GEN

 OPENING FILE ON UNIT   99:
 /mnt/d/projecten/datamanagement/rws/BasisRivierbodemLigging/wps_brl_modelling/model/hfb/hfb_l7.gen                                                                                                      
  FILE IDENTIFIED AS GEN

   5175 HFB BARRIERS

 anisotropy factor        =   1.00000     FOR LAYER   1

 anisotropy angle         =   0.00000     FOR LAYER   1

 OPENING FILE ON UNIT   99:
 /mnt/d/projecten/datamanagement/rws/BasisRivierbodemLigging/wps_brl_modelling/model/ani/fct_laag2.idf                                                                                                   
  FILE IDENTIFIED AS IDF

 OPENING FILE ON UNIT   99:
 /mnt/d/projecten/datamanagement/rws/BasisRivierbodemLigging/wps_brl_modelling/model/ani/hk_laag2.idf                                                                                                    
  FILE IDENTIFIED AS IDF

 OPENING FILE ON UNIT   99:
 /mnt/d/projecten/datamanagement/rws/BasisRivierbodemLigging/wps_brl_modelling/model/ani/fct_laag3.idf                                                                                                   
  FILE IDENTIFIED AS IDF

 OPENING FILE ON UNIT   99:
 /mnt/d/projecten/datamanagement/rws/BasisRivierbodemLigging/wps_brl_modelling/model/ani/hk_laag3.idf                                                                                                    
  FILE IDENTIFIED AS IDF

 OPENING FILE ON UNIT   99:
 /mnt/d/projecten/datamanagement/rws/BasisRivierbodemLigging/wps_brl_modelling/model/ani/fct_laag4.idf                                                                                                   
  FILE IDENTIFIED AS IDF

 OPENING FILE ON UNIT   99:
 /mnt/d/projecten/datamanagement/rws/BasisRivierbodemLigging/wps_brl_modelling/model/ani/hk_laag4.idf                                                                                                    
  FILE IDENTIFIED AS IDF

 OPENING FILE ON UNIT   99:
 /mnt/d/projecten/datamanagement/rws/BasisRivierbodemLigging/wps_brl_modelling/model/ani/fct_laag5.idf                                                                                                   
  FILE IDENTIFIED AS IDF

 OPENING FILE ON UNIT   99:
 /mnt/d/projecten/datamanagement/rws/BasisRivierbodemLigging/wps_brl_modelling/model/ani/hk_laag5.idf                                                                                                    
  FILE IDENTIFIED AS IDF

 anisotropy factor        =   1.00000     FOR LAYER   6

 anisotropy angle         =   0.00000     FOR LAYER   6

 anisotropy factor        =   1.00000     FOR LAYER   7

 anisotropy angle         =   0.00000     FOR LAYER   7
 ANI check for HFB:           0 cells transfered into isotropic conditions

 WEL -- WELL PACKAGE, VERSION 7, 5/2/2005 INPUT READ FROM UNIT   19
 # Well Package file
 No named parameters
 MAXIMUM OF      1 ACTIVE WELLS AT ONE TIME
 LISTS OF WELL CELLS WILL NOT BE PRINTED


     0 Well parameters

 DRN -- DRAIN PACKAGE, VERSION 7, 5/2/2005 INPUT READ FROM UNIT   17
 # Drain Package file
 No named parameters
 MAXIMUM OF        1 ACTIVE DRAINS AT ONE TIME
 LISTS OF DRAIN CELLS WILL NOT BE PRINTED
 AUXILIARY DRAIN VARIABLE: ISUB            
 DSUBSYS variabel ISUB             used for sub-system indices.


     0 Drain parameters

 RIV -- RIVER PACKAGE, VERSION 7, 5/2/2005 INPUT READ FROM UNIT   16
          TNO version v7r1, 28 apr 2009
 # River Package file
 No named parameters
 MAXIMUM OF      1 ACTIVE RIVER REACHES AT ONE TIME
 LISTS OF RIVER CELLS WILL NOT BE PRINTED
 AUXILIARY RIVER VARIABLE: RFCT            
 AUXILIARY RIVER VARIABLE: ISUB            
 RFACT variabel RFCT             used as infiltration factor.
 RSUBSYS variabel ISUB             used for sub-system indices.


     0 River parameters

 GHB -- GENERAL-HEAD BOUNDARY PACKAGE, VERSION 7, 5/2/2005
         INPUT READ FROM UNIT   18
 # General-Head Boundary Package file
 No named parameters
 MAXIMUM OF      1 ACTIVE GHB CELLS AT ONE TIME
 LISTS OF GENERAL-HEAD BOUNDARY CELLS WILL NOT BE PRINTED


     0 GHB parameters

 RCH -- RECHARGE PACKAGE, VERSION 7, 5/2/2005 INPUT READ FROM UNIT   24
 # Recharge Package file
 No named parameters
 OPTION 1 -- RECHARGE TO TOP LAYER


     0 Recharge parameters

 PCG -- CONJUGATE-GRADIENT SOLUTION PACKAGE, VERSION 7, 5/2/2005
 # Preconditioned Conjugate-Gradient Package
 MAXIMUM OF    150 CALLS OF SOLUTION ROUTINE
 MAXIMUM OF     30 INTERNAL ITERATIONS PER CALL TO SOLUTION ROUTINE
 MATRIX PRECONDITIONING TYPE :    1



                                    SOLUTION BY THE CONJUGATE-GRADIENT METHOD
                                   -------------------------------------------
                    MAXIMUM NUMBER OF CALLS TO PCG ROUTINE =      150
                        MAXIMUM ITERATIONS PER CALL TO PCG =       30
                               MATRIX PRECONDITIONING TYPE =        1
        RELAXATION FACTOR (ONLY USED WITH PRECOND. TYPE 1) =    0.98000E+00
 PARAMETER OF POLYNOMIAL PRECOND. = 2 (2) OR IS CALCULATED :        1
                         HEAD CHANGE CRITERION FOR CLOSURE =    0.10000E-02
                     RESIDUAL CHANGE CRITERION FOR CLOSURE =    0.10000E+03
            PCG HEAD AND RESIDUAL CHANGE PRINTOUT INTERVAL =        1
     PRINTING FROM SOLVER IS LIMITED(1) OR SUPPRESSED (>1) =        0
                            STEADY-STATE DAMPING PARAMETER =    0.10000E+01
                               TRANSIENT DAMPING PARAMETER =    0.10000E+01
1
                            STRESS PERIOD NO.    1, LENGTH =   1.000000    
                            -----------------------------------------------

                              NUMBER OF TIME STEPS =     1

                               MULTIPLIER FOR DELT =     1.000

                            INITIAL TIME STEP SIZE =   1.000000    
  DATA IDENTIFIED AS GCD

 OPENING FILE ON UNIT   99:
 /mnt/d/projecten/datamanagement/rws/BasisRivierbodemLigging/wps_brl_modelling/model/wel/wel_l01_nhi.ipf                                                                                                 
  FILE IDENTIFIED AS IPF

 OPENING FILE ON UNIT   99:
 /mnt/d/projecten/datamanagement/rws/BasisRivierbodemLigging/wps_brl_modelling/model/wel/wel_l02_nhi.ipf                                                                                                 
  FILE IDENTIFIED AS IPF

 OPENING FILE ON UNIT   99:
 /mnt/d/projecten/datamanagement/rws/BasisRivierbodemLigging/wps_brl_modelling/model/wel/wel_l03_nhi.ipf                                                                                                 
  FILE IDENTIFIED AS IPF

 OPENING FILE ON UNIT   99:
 /mnt/d/projecten/datamanagement/rws/BasisRivierbodemLigging/wps_brl_modelling/model/wel/wel_l04_nhi.ipf                                                                                                 
  FILE IDENTIFIED AS IPF

 OPENING FILE ON UNIT   99:
 /mnt/d/projecten/datamanagement/rws/BasisRivierbodemLigging/wps_brl_modelling/model/wel/wel_l05_nhi.ipf                                                                                                 
  FILE IDENTIFIED AS IPF

 OPENING FILE ON UNIT   99:
 /mnt/d/projecten/datamanagement/rws/BasisRivierbodemLigging/wps_brl_modelling/model/wel/wel_l06_nhi.ipf                                                                                                 
  FILE IDENTIFIED AS IPF

 OPENING FILE ON UNIT   99:
 /mnt/d/projecten/datamanagement/rws/BasisRivierbodemLigging/wps_brl_modelling/model/wel/wel_l07_nhi.ipf                                                                                                 
  FILE IDENTIFIED AS IPF

 OPENING FILE ON UNIT   99:
 /mnt/d/projecten/datamanagement/rws/BasisRivierbodemLigging/wps_brl_modelling/model/wel/wel_bw_l2_cor.ipf                                                                                               
  FILE IDENTIFIED AS IPF

 OPENING FILE ON UNIT   99:
 /mnt/d/projecten/datamanagement/rws/BasisRivierbodemLigging/wps_brl_modelling/model/wel/wel_bw_l3_cor.ipf                                                                                               
  FILE IDENTIFIED AS IPF

 OPENING FILE ON UNIT   99:
 /mnt/d/projecten/datamanagement/rws/BasisRivierbodemLigging/wps_brl_modelling/model/wel/wel_bw_l4_cor.ipf                                                                                               
  FILE IDENTIFIED AS IPF

 OPENING FILE ON UNIT   99:
 /mnt/d/projecten/datamanagement/rws/BasisRivierbodemLigging/wps_brl_modelling/model/wel/wel_bw_l5_cor.ipf                                                                                               
  FILE IDENTIFIED AS IPF

 OPENING FILE ON UNIT   99:
 /mnt/d/projecten/datamanagement/rws/BasisRivierbodemLigging/wps_brl_modelling/model/wel/wel_bw_l6_cor.ipf                                                                                               
  FILE IDENTIFIED AS IPF

 OPENING FILE ON UNIT   99:
 /mnt/d/projecten/datamanagement/rws/BasisRivierbodemLigging/wps_brl_modelling/model/wel/wel_bw_l7_cor.ipf                                                                                               
  FILE IDENTIFIED AS IPF

 OPENING FILE ON UNIT   99:
 /mnt/d/projecten/datamanagement/rws/BasisRivierbodemLigging/wps_brl_modelling/model/wel/wel_evides_l2.ipf                                                                                               
  FILE IDENTIFIED AS IPF

 OPENING FILE ON UNIT   99:
 /mnt/d/projecten/datamanagement/rws/BasisRivierbodemLigging/wps_brl_modelling/model/wel/wel_evides_l3.ipf                                                                                               
  FILE IDENTIFIED AS IPF

 OPENING FILE ON UNIT   99:
 /mnt/d/projecten/datamanagement/rws/BasisRivierbodemLigging/wps_brl_modelling/model/wel/wel_evides_l5.ipf                                                                                               
  FILE IDENTIFIED AS IPF

 OPENING FILE ON UNIT   99:
 /mnt/d/projecten/datamanagement/rws/BasisRivierbodemLigging/wps_brl_modelling/model/wel/wel_evides_l6.ipf                                                                                               
  FILE IDENTIFIED AS IPF

 OPENING FILE ON UNIT   99:
 /mnt/d/projecten/datamanagement/rws/BasisRivierbodemLigging/wps_brl_modelling/model/wel/wel_evides_l7.ipf                                                                                               
  FILE IDENTIFIED AS IPF

 OPENING FILE ON UNIT   99:
 /mnt/d/projecten/datamanagement/rws/BasisRivierbodemLigging/wps_brl_modelling/model/wel/wel_pwn_l2.ipf                                                                                                  
  FILE IDENTIFIED AS IPF

 OPENING FILE ON UNIT   99:
 /mnt/d/projecten/datamanagement/rws/BasisRivierbodemLigging/wps_brl_modelling/model/wel/wel_pwn_l3.ipf                                                                                                  
  FILE IDENTIFIED AS IPF

 OPENING FILE ON UNIT   99:
 /mnt/d/projecten/datamanagement/rws/BasisRivierbodemLigging/wps_brl_modelling/model/wel/wel_vitens_l1.ipf                                                                                               
  FILE IDENTIFIED AS IPF

 OPENING FILE ON UNIT   99:
 /mnt/d/projecten/datamanagement/rws/BasisRivierbodemLigging/wps_brl_modelling/model/wel/wel_vitens_l2.ipf                                                                                               
  FILE IDENTIFIED AS IPF

 OPENING FILE ON UNIT   99:
 /mnt/d/projecten/datamanagement/rws/BasisRivierbodemLigging/wps_brl_modelling/model/wel/wel_vitens_l3.ipf                                                                                               
  FILE IDENTIFIED AS IPF

 OPENING FILE ON UNIT   99:
 /mnt/d/projecten/datamanagement/rws/BasisRivierbodemLigging/wps_brl_modelling/model/wel/wel_vitens_l4.ipf                                                                                               
  FILE IDENTIFIED AS IPF

 OPENING FILE ON UNIT   99:
 /mnt/d/projecten/datamanagement/rws/BasisRivierbodemLigging/wps_brl_modelling/model/wel/wel_vitens_l5.ipf                                                                                               
  FILE IDENTIFIED AS IPF

 OPENING FILE ON UNIT   99:
 /mnt/d/projecten/datamanagement/rws/BasisRivierbodemLigging/wps_brl_modelling/model/wel/wel_vitens_l6.ipf                                                                                               
  FILE IDENTIFIED AS IPF

 OPENING FILE ON UNIT   99:
 /mnt/d/projecten/datamanagement/rws/BasisRivierbodemLigging/wps_brl_modelling/model/wel/wel_vitens_l7.ipf                                                                                               
  FILE IDENTIFIED AS IPF

 OPENING FILE ON UNIT   99:
 /mnt/d/projecten/datamanagement/rws/BasisRivierbodemLigging/wps_brl_modelling/model/wel/wel_wbgr_l4.ipf                                                                                                 
  FILE IDENTIFIED AS IPF

 OPENING FILE ON UNIT   99:
 /mnt/d/projecten/datamanagement/rws/BasisRivierbodemLigging/wps_brl_modelling/model/wel/wel_wbgr_l5.ipf                                                                                                 
  FILE IDENTIFIED AS IPF

 OPENING FILE ON UNIT   99:
 /mnt/d/projecten/datamanagement/rws/BasisRivierbodemLigging/wps_brl_modelling/model/wel/wel_wbgr_l6.ipf                                                                                                 
  FILE IDENTIFIED AS IPF

 OPENING FILE ON UNIT   99:
 /mnt/d/projecten/datamanagement/rws/BasisRivierbodemLigging/wps_brl_modelling/model/wel/wel_wbgr_l7.ipf                                                                                                 
  FILE IDENTIFIED AS IPF

 OPENING FILE ON UNIT   99:
 /mnt/d/projecten/datamanagement/rws/BasisRivierbodemLigging/wps_brl_modelling/model/wel/wel_wmd_l4.ipf                                                                                                  
  FILE IDENTIFIED AS IPF

 OPENING FILE ON UNIT   99:
 /mnt/d/projecten/datamanagement/rws/BasisRivierbodemLigging/wps_brl_modelling/model/wel/wel_wmd_l5.ipf                                                                                                  
  FILE IDENTIFIED AS IPF

 OPENING FILE ON UNIT   99:
 /mnt/d/projecten/datamanagement/rws/BasisRivierbodemLigging/wps_brl_modelling/model/wel/wel_wmd_l6.ipf                                                                                                  
  FILE IDENTIFIED AS IPF

 OPENING FILE ON UNIT   99:
 /mnt/d/projecten/datamanagement/rws/BasisRivierbodemLigging/wps_brl_modelling/model/wel/wel_wmd_l7.ipf                                                                                                  
  FILE IDENTIFIED AS IPF

 OPENING FILE ON UNIT   99:
 /mnt/d/projecten/datamanagement/rws/BasisRivierbodemLigging/wps_brl_modelling/model/wel/wel_wml_l2_cor.ipf                                                                                              
  FILE IDENTIFIED AS IPF

 OPENING FILE ON UNIT   99:
 /mnt/d/projecten/datamanagement/rws/BasisRivierbodemLigging/wps_brl_modelling/model/wel/wel_wml_l3_cor.ipf                                                                                              
  FILE IDENTIFIED AS IPF

 OPENING FILE ON UNIT   99:
 /mnt/d/projecten/datamanagement/rws/BasisRivierbodemLigging/wps_brl_modelling/model/wel/wel_wml_l4_cor.ipf                                                                                              
  FILE IDENTIFIED AS IPF

 OPENING FILE ON UNIT   99:
 /mnt/d/projecten/datamanagement/rws/BasisRivierbodemLigging/wps_brl_modelling/model/wel/wel_wml_l5_cor.ipf                                                                                              
  FILE IDENTIFIED AS IPF

 OPENING FILE ON UNIT   99:
 /mnt/d/projecten/datamanagement/rws/BasisRivierbodemLigging/wps_brl_modelling/model/wel/wel_wml_l6_cor.ipf                                                                                              
  FILE IDENTIFIED AS IPF

 OPENING FILE ON UNIT   99:
 /mnt/d/projecten/datamanagement/rws/BasisRivierbodemLigging/wps_brl_modelling/model/wel/wel_wml_l7_cor.ipf                                                                                              
  FILE IDENTIFIED AS IPF

 OPENING FILE ON UNIT   99:
 /mnt/d/projecten/datamanagement/rws/BasisRivierbodemLigging/wps_brl_modelling/model/wel/wel_oasen_l2.ipf                                                                                                
  FILE IDENTIFIED AS IPF

 OPENING FILE ON UNIT   99:
 /mnt/d/projecten/datamanagement/rws/BasisRivierbodemLigging/wps_brl_modelling/model/wel/wel_oasen_l3.ipf                                                                                                
  FILE IDENTIFIED AS IPF

 OPENING FILE ON UNIT   99:
 /mnt/d/projecten/datamanagement/rws/BasisRivierbodemLigging/wps_brl_modelling/model/wel/wel_oasen_l4.ipf                                                                                                
  FILE IDENTIFIED AS IPF

 OPENING FILE ON UNIT   99:
 /mnt/d/projecten/datamanagement/rws/BasisRivierbodemLigging/wps_brl_modelling/model/wel/wel_oasen_l5.ipf                                                                                                
  FILE IDENTIFIED AS IPF

 OPENING FILE ON UNIT   99:
 /mnt/d/projecten/datamanagement/rws/BasisRivierbodemLigging/wps_brl_modelling/model/wel/wel_oasen_l6.ipf                                                                                                
  FILE IDENTIFIED AS IPF

 OPENING FILE ON UNIT   99:
 /mnt/d/projecten/datamanagement/rws/BasisRivierbodemLigging/wps_brl_modelling/model/ghb/Randflux_L1.ipf                                                                                                 
  FILE IDENTIFIED AS IPF

 OPENING FILE ON UNIT   99:
 /mnt/d/projecten/datamanagement/rws/BasisRivierbodemLigging/wps_brl_modelling/model/ghb/Randflux_L2.ipf                                                                                                 
  FILE IDENTIFIED AS IPF

 OPENING FILE ON UNIT   99:
 /mnt/d/projecten/datamanagement/rws/BasisRivierbodemLigging/wps_brl_modelling/model/ghb/Randflux_L3.ipf                                                                                                 
  FILE IDENTIFIED AS IPF

 OPENING FILE ON UNIT   99:
 /mnt/d/projecten/datamanagement/rws/BasisRivierbodemLigging/wps_brl_modelling/model/ghb/Randflux_L4.ipf                                                                                                 
  FILE IDENTIFIED AS IPF

 OPENING FILE ON UNIT   99:
 /mnt/d/projecten/datamanagement/rws/BasisRivierbodemLigging/wps_brl_modelling/model/ghb/Randflux_L5.ipf                                                                                                 
  FILE IDENTIFIED AS IPF

 OPENING FILE ON UNIT   99:
 /mnt/d/projecten/datamanagement/rws/BasisRivierbodemLigging/wps_brl_modelling/model/ghb/Randflux_L6.ipf                                                                                                 
  FILE IDENTIFIED AS IPF

 OPENING FILE ON UNIT   99:
 /mnt/d/projecten/datamanagement/rws/BasisRivierbodemLigging/wps_brl_modelling/model/ghb/Randflux_L7.ipf                                                                                                 
  FILE IDENTIFIED AS IPF

  29065 WELLS
  DATA IDENTIFIED AS GCD

 OPENING FILE ON UNIT   99:
 /mnt/d/projecten/datamanagement/rws/BasisRivierbodemLigging/wps_brl_modelling/model/riv/regionaal/COND_P_L0.IDF                                                                                         
  FILE IDENTIFIED AS IDF

 OPENING FILE ON UNIT   99:
 /mnt/d/projecten/datamanagement/rws/BasisRivierbodemLigging/wps_brl_modelling/model/riv/regionaal/PEIL_P1W_250.IDF                                                                                      
  FILE IDENTIFIED AS IDF

 OPENING FILE ON UNIT   99:
 /mnt/d/projecten/datamanagement/rws/BasisRivierbodemLigging/wps_brl_modelling/model/riv/regionaal/BODH_P1W_250.IDF                                                                                      
  FILE IDENTIFIED AS IDF

 OPENING FILE ON UNIT   99:
 /mnt/d/projecten/datamanagement/rws/BasisRivierbodemLigging/wps_brl_modelling/model/riv/regionaal/INFMZ_P1_250.IDF                                                                                      
  FILE IDENTIFIED AS IDF

 OPENING FILE ON UNIT   99:
 /mnt/d/projecten/datamanagement/rws/BasisRivierbodemLigging/wps_brl_modelling/model/riv/regionaal/COND_S_L0.IDF                                                                                         
  FILE IDENTIFIED AS IDF

 OPENING FILE ON UNIT   99:
 /mnt/d/projecten/datamanagement/rws/BasisRivierbodemLigging/wps_brl_modelling/model/riv/regionaal/PEIL_S1W_250.IDF                                                                                      
  FILE IDENTIFIED AS IDF

 OPENING FILE ON UNIT   99:
 /mnt/d/projecten/datamanagement/rws/BasisRivierbodemLigging/wps_brl_modelling/model/riv/regionaal/BODH_S1W_250.IDF                                                                                      
  FILE IDENTIFIED AS IDF

 OPENING FILE ON UNIT   99:
 /mnt/d/projecten/datamanagement/rws/BasisRivierbodemLigging/wps_brl_modelling/model/riv/regionaal/INFMZ_S1_250.IDF                                                                                      
  FILE IDENTIFIED AS IDF

 OPENING FILE ON UNIT   99:
 /mnt/d/projecten/datamanagement/rws/BasisRivierbodemLigging/wps_brl_modelling/model/riv/regionaal/COND_T_L0.IDF                                                                                         
  FILE IDENTIFIED AS IDF

 OPENING FILE ON UNIT   99:
 /mnt/d/projecten/datamanagement/rws/BasisRivierbodemLigging/wps_brl_modelling/model/riv/regionaal/PEIL_T1W_250.IDF                                                                                      
  FILE IDENTIFIED AS IDF

 OPENING FILE ON UNIT   99:
 /mnt/d/projecten/datamanagement/rws/BasisRivierbodemLigging/wps_brl_modelling/model/riv/regionaal/PEIL_T1W_250.IDF                                                                                      
  FILE IDENTIFIED AS IDF

 OPENING FILE ON UNIT   99:
 /mnt/d/projecten/datamanagement/rws/BasisRivierbodemLigging/wps_brl_modelling/model/riv/regionaal/INFMZ_T1_250.IDF                                                                                      
  FILE IDENTIFIED AS IDF

 OPENING FILE ON UNIT   99:
 /mnt/d/projecten/datamanagement/rws/BasisRivierbodemLigging/wps_brl_modelling/model/riv/hoofdwater/COND_HL1_250.IDF                                                                                     
  FILE IDENTIFIED AS IDF

 OPENING FILE ON UNIT   99:
 /mnt/d/projecten/datamanagement/rws/BasisRivierbodemLigging/wps_brl_modelling/model/riv/hoofdwater/PEILH_1998_2006_mean.IDF                                                                             
  FILE IDENTIFIED AS IDF

 OPENING FILE ON UNIT   99:
 /mnt/d/projecten/datamanagement/rws/BasisRivierbodemLigging/wps_brl_modelling/model/riv/hoofdwater/both_w_l1.idf                                                                                        
  FILE IDENTIFIED AS IDF

 OPENING FILE ON UNIT   99:
 /mnt/d/projecten/datamanagement/rws/BasisRivierbodemLigging/wps_brl_modelling/model/riv/hoofdwater/infmz_h_250_l1.idf                                                                                   
  FILE IDENTIFIED AS IDF

 OPENING FILE ON UNIT   99:
 /mnt/d/projecten/datamanagement/rws/BasisRivierbodemLigging/wps_brl_modelling/model/riv/hoofdwater/COND_HL2_250.IDF                                                                                     
  FILE IDENTIFIED AS IDF

 OPENING FILE ON UNIT   99:
 /mnt/d/projecten/datamanagement/rws/BasisRivierbodemLigging/wps_brl_modelling/model/riv/hoofdwater/PEILH_1998_2006_mean.IDF                                                                             
  FILE IDENTIFIED AS IDF

 OPENING FILE ON UNIT   99:
 /mnt/d/projecten/datamanagement/rws/BasisRivierbodemLigging/wps_brl_modelling/model/riv/hoofdwater/both_w_l2.idf                                                                                        
  FILE IDENTIFIED AS IDF

 OPENING FILE ON UNIT   99:
 /mnt/d/projecten/datamanagement/rws/BasisRivierbodemLigging/wps_brl_modelling/model/riv/hoofdwater/infmz_h_250_l2.idf                                                                                   
  FILE IDENTIFIED AS IDF

 OPENING FILE ON UNIT   99:
 /mnt/d/projecten/datamanagement/rws/BasisRivierbodemLigging/wps_brl_modelling/model/riv/wellen/cond_wel.idf                                                                                             
  FILE IDENTIFIED AS IDF

 OPENING FILE ON UNIT   99:
 /mnt/d/projecten/datamanagement/rws/BasisRivierbodemLigging/wps_brl_modelling/model/riv/wellen/peilw_wel.idf                                                                                            
  FILE IDENTIFIED AS IDF

 OPENING FILE ON UNIT   99:
 /mnt/d/projecten/datamanagement/rws/BasisRivierbodemLigging/wps_brl_modelling/model/riv/wellen/bodh_wel.idf                                                                                             
  FILE IDENTIFIED AS IDF

 OPENING FILE ON UNIT   99:
 /mnt/d/projecten/datamanagement/rws/BasisRivierbodemLigging/wps_brl_modelling/model/riv/wellen/inff_wel.idf                                                                                             
  FILE IDENTIFIED AS IDF

 921990 RIVER REACHES
  DATA IDENTIFIED AS GCD

 OPENING FILE ON UNIT   99:
 /mnt/d/projecten/datamanagement/rws/BasisRivierbodemLigging/wps_brl_modelling/model/drn/COND_B_250.IDF                                                                                                  
  FILE IDENTIFIED AS IDF

 OPENING FILE ON UNIT   99:
 /mnt/d/projecten/datamanagement/rws/BasisRivierbodemLigging/wps_brl_modelling/model/drn/BODH_B_250.IDF                                                                                                  
  FILE IDENTIFIED AS IDF

 OPENING FILE ON UNIT   99:
 /mnt/d/projecten/datamanagement/rws/BasisRivierbodemLigging/wps_brl_modelling/model/drn/COND_BRP2012_MVGREP_250.IDF                                                                                     
  FILE IDENTIFIED AS IDF

 OPENING FILE ON UNIT   99:
 /mnt/d/projecten/datamanagement/rws/BasisRivierbodemLigging/wps_brl_modelling/model/drn/BODH_BRP2012_MVGREP_250.IDF                                                                                     
  FILE IDENTIFIED AS IDF

 OPENING FILE ON UNIT   99:
 /mnt/d/projecten/datamanagement/rws/BasisRivierbodemLigging/wps_brl_modelling/model/drn/COND_SOF_250.IDF                                                                                                
  FILE IDENTIFIED AS IDF

 OPENING FILE ON UNIT   99:
 /mnt/d/projecten/datamanagement/rws/BasisRivierbodemLigging/wps_brl_modelling/model/drn/BODH_SOF_250.IDF                                                                                                
  FILE IDENTIFIED AS IDF

   925561 DRAINS
  DATA IDENTIFIED AS GCD

 OPENING FILE ON UNIT   99:
 /mnt/d/projecten/datamanagement/rws/BasisRivierbodemLigging/wps_brl_modelling/model/ghb/GHB_COND_L02_S01.IDF                                                                                            
  FILE IDENTIFIED AS IDF

 OPENING FILE ON UNIT   99:
 /mnt/d/projecten/datamanagement/rws/BasisRivierbodemLigging/wps_brl_modelling/model/ghb/GHB_STAGE_L02_S01.IDF                                                                                           
  FILE IDENTIFIED AS IDF

  82738 GHB CELLS

 OPENING FILE ON UNIT   99:
 /mnt/d/projecten/datamanagement/rws/BasisRivierbodemLigging/wps_brl_modelling/model/rch/rch_1998_2006_mmd.idf                                                                                           
  FILE IDENTIFIED AS IDF
 
 SOLVING FOR HEAD 
 
 SOLVING FOR HEAD 
 
 SOLVING FOR HEAD 
 
 SOLVING FOR HEAD 
 
 SOLVING FOR HEAD 
 
 SOLVING FOR HEAD 
 
 SOLVING FOR HEAD 
 
 SOLVING FOR HEAD 
 
 SOLVING FOR HEAD 
 
 SOLVING FOR HEAD 
 
 SOLVING FOR HEAD 
 
 SOLVING FOR HEAD 
 
 SOLVING FOR HEAD 
 
 SOLVING FOR HEAD 
 
 SOLVING FOR HEAD 
 
 SOLVING FOR HEAD 
 
 SOLVING FOR HEAD 
 
 SOLVING FOR HEAD 
 
 SOLVING FOR HEAD 
 
 SOLVING FOR HEAD 
 
 SOLVING FOR HEAD 
 
 SOLVING FOR HEAD 
 
 SOLVING FOR HEAD 
 
 SOLVING FOR HEAD 
 
 SOLVING FOR HEAD 
 
 SOLVING FOR HEAD 
 
 SOLVING FOR HEAD 
 
 SOLVING FOR HEAD 
 
 SOLVING FOR HEAD 
 
 SOLVING FOR HEAD 
 
 SOLVING FOR HEAD 
 
 SOLVING FOR HEAD 
 
 SOLVING FOR HEAD 
 
 SOLVING FOR HEAD 
 
 SOLVING FOR HEAD 
 
 SOLVING FOR HEAD 
 
 SOLVING FOR HEAD 


    37 CALLS TO PCG ROUTINE FOR TIME STEP   1 IN STRESS PERIOD    1
  1054 TOTAL ITERATIONS

 MAXIMUM HEAD CHANGE FOR EACH ITERATION (1 INDICATES THE FIRST INNER ITERATION):

    HEAD CHANGE    HEAD CHANGE    HEAD CHANGE    HEAD CHANGE    HEAD CHANGE 
   LAYER,ROW,COL  LAYER,ROW,COL  LAYER,ROW,COL  LAYER,ROW,COL  LAYER,ROW,COL
 ---------------------------------------------------------------------------
    1   208.1          0   112.9          0   28.90          0   12.74          0  -9.701    
   (  1,  723,  397)  (  1,  723,  397)  (  1,  723,  397)  (  1,  723,  397)  (  2,  972,  742)
    0  -6.379          0  -6.674          0  -7.115          0  -7.043          0  -5.220    
   (  3,  972,  742)  (  1,  749,  258)  (  1,  749,  258)  (  1,  724,  397)  (  1,  724,  397)
    0  -6.343          0  -4.492          0  -4.288          0  -4.466          0   4.965    
   (  1,  724,  397)  (  1,  724,  397)  (  1,  724,  397)  (  1,  724,  397)  (  2,  186, 1065)
    0   5.172          0   7.242          0   6.192          0   3.010          0   4.626    
   (  2,  186, 1065)  (  2,  186, 1065)  (  2,  186, 1065)  (  2,  186, 1065)  (  2,  186, 1065)
    0   3.655          0   2.852          0   3.887          0   4.105          0   3.354    
   (  2,  186, 1065)  (  1,  724,  397)  (  1,  724,  397)  (  1,  723,  397)  (  1,  723,  397)
    0   2.330          0  -2.847          0  -3.839          0  -3.327          0  -3.540    
   (  1,  723,  397)  (  2,  186, 1065)  (  2,  186, 1065)  (  2,  186, 1065)  (  2,  186, 1065)
    1  -326.8          0   13.05          0  -2.940          0  -1.756          0   1.577    
   (  1,  723,  397)  (  4,  967,  739)  (  4,  977,  743)  (  4,  967,  739)  (  2,  749,  257)
    0   3.405          0  -4.151          0  -4.098          0  -4.548          0  -4.662    
   (  2,  749,  257)  (  3,  186, 1065)  (  3,  186, 1065)  (  3,  186, 1065)  (  3,  186, 1065)
    0  -4.613          0  -3.323          0  -2.290          0  -1.575          0 -0.8466    
   (  3,  186, 1065)  (  3,  186, 1065)  (  3,  186, 1065)  (  3,  186, 1065)  (  2,  749,  257)
    0 -0.7103          0  0.6997          0  0.8909          0  0.7339          0  0.9062    
   (  2,  191, 1058)  (  3,  183, 1070)  (  3,  183, 1070)  (  3,  183, 1070)  (  3,  183, 1070)
    0  0.8627          0  0.8526          0   1.349          0   1.180          0   1.032    
   (  3,  183, 1070)  (  3,  186, 1065)  (  3,  186, 1065)  (  3,  186, 1065)  (  3,  186, 1065)
    0  -1.516          0   1.501          0  -1.499          0  -1.308          0  -1.388    
   (  7, 1095,  730)  (  7, 1095,  730)  (  7, 1095,  730)  (  7, 1083,  824)  (  7, 1083,  824)
    1  -1.716          0  -2.338          0   2.029          0  -2.964          0   2.532    
   (  7, 1095,  730)  (  1,  751,  255)  (  7, 1095,  730)  (  7, 1095,  730)  (  7, 1095,  730)
    0  -1.185          0 -0.1902          0  0.6567          0 -0.3651          0  0.2913    
   (  7, 1095,  730)  (  2,  749,  258)  (  7, 1095,  730)  (  7, 1095,  730)  (  2,  191, 1058)
    0  0.2933          0  0.2754          0  0.3422          0  0.3621          0  0.4229    
   (  2,  191, 1058)  (  3, 1270,  799)  (  3, 1270,  799)  (  3, 1270,  799)  (  3, 1270,  799)
    0  0.5061          0  0.6147          0  0.7373          0  0.9933          0   1.266    
   (  3, 1270,  799)  (  3, 1270,  799)  (  3, 1270,  799)  (  3, 1270,  799)  (  3, 1270,  799)
    0   1.336          0   1.996          0   1.434          0   1.816          0   2.283    
   (  3, 1270,  799)  (  3, 1270,  799)  (  3, 1270,  799)  (  3, 1270,  799)  (  3, 1270,  799)
    0   2.233          0   2.426          0   2.328          0   2.285          0   1.277    
   (  3, 1270,  799)  (  3, 1270,  799)  (  3, 1270,  799)  (  3, 1270,  799)  (  3, 1270,  799)
    1  -3.044          0  -5.535          0   1.255          0 -0.8449          0  0.3432    
   (  1,  975,  328)  (  1,  975,  328)  (  4,  967,  739)  (  4,  967,  739)  (  4,  967,  739)
    0  0.2677          0  0.1890          0  0.1265          0  0.2134          0  0.2458    
   (  4,  977,  743)  (  2,  749,  257)  (  2,  749,  257)  (  2,  749,  257)  (  7, 1095,  730)
    0 -0.3189          0 -0.3877          0 -0.4224          0  0.4846          0  0.4220    
   (  7,  429, 1040)  (  7,  429, 1040)  (  7,  429, 1040)  (  3, 1270,  799)  (  3, 1270,  799)
    0  0.4833          0  0.4207          0  0.4493          0  0.4259          0  0.5143    
   (  3, 1270,  799)  (  3, 1270,  799)  (  3, 1270,  799)  (  3, 1270,  799)  (  3, 1270,  799)
    0  0.5739          0  0.8030          0  0.6351          0  0.8723          0   1.120    
   (  3, 1270,  799)  (  3, 1270,  799)  (  3, 1270,  799)  (  3, 1270,  799)  (  3, 1270,  799)
    0   1.353          0   1.495          0   1.432          0   1.417          0   1.271    
   (  3, 1270,  799)  (  3, 1270,  799)  (  3, 1270,  799)  (  3, 1270,  799)  (  3, 1270,  799)
    1  0.7336          0  -1.354          0  -1.248          0 -0.9628          0 -0.4984    
   (  5, 1088,  768)  (  1,  972,  326)  (  1,  972,  326)  (  5, 1087,  768)  (  5, 1088,  768)
    0  0.3038          0 -0.2262          0 -0.1768          0  0.1028          0 -0.2814    
   (  7, 1095,  730)  (  7, 1095,  730)  (  5, 1088,  768)  (  7, 1095,  730)  (  5, 1087,  768)
    0  0.3107          0  0.3115          0  0.4029          0  0.3776          0  0.3563    
   (  5, 1087,  768)  (  3, 1270,  799)  (  3, 1270,  799)  (  3, 1270,  799)  (  3, 1270,  799)
    0  0.2899          0  0.4008          0  0.3941          0  0.5151          0  0.6713    
   (  3, 1270,  799)  (  3, 1270,  799)  (  3, 1270,  799)  (  3, 1270,  799)  (  3, 1270,  799)
    0  0.9607          0   1.001          0  0.9682          0   1.001          0  0.6794    
   (  3, 1270,  799)  (  3, 1270,  799)  (  3, 1270,  799)  (  3, 1270,  799)  (  3, 1270,  799)
    0   1.025          0   1.108          0   1.357          0   1.328          0   1.225    
   (  3, 1270,  799)  (  3, 1270,  799)  (  3, 1270,  799)  (  3, 1270,  799)  (  3, 1270,  799)
    1 -0.7088          0  -2.354          0  -2.047          0  -1.273          0 -0.6860    
   (  1,  978,  327)  (  1,  978,  327)  (  1,  978,  327)  (  1,  978,  327)  (  1,  978,  327)
    0 -0.2861          0 -0.2382          0 -0.1836          0 -0.1854          0 -0.2465    
   (  2,  978,  327)  (  2,  978,  327)  (  2,  978,  327)  (  2,  974,  324)  (  2,  974,  324)
    0 -0.3529          0 -0.4516          0 -0.5179          0 -0.6027          0 -0.3707    
   (  2,  974,  324)  (  2,  974,  324)  (  2,  974,  324)  (  2,  974,  324)  (  2,  974,  324)
    0 -0.3557          0 -0.3317          0  0.2731          0  0.2800          0  0.4049    
   (  2,  974,  324)  (  2,  974,  324)  (  3, 1270,  799)  (  3, 1270,  799)  (  3, 1270,  799)
    0  0.4780          0  0.5331          0  0.4882          0  0.8507          0   1.101    
   (  3, 1270,  799)  (  3, 1270,  799)  (  3, 1270,  799)  (  3, 1270,  799)  (  3, 1270,  799)
    0   1.161          0   1.138          0   1.088          0  0.9378          0  0.7345    
   (  3, 1270,  799)  (  3, 1270,  799)  (  3, 1270,  799)  (  3, 1270,  799)  (  3, 1270,  799)
    1  0.2119          0 -0.9987          0  -1.339          0  0.9150          0 -0.7129    
   (  7, 1095,  730)  (  1,  980,  330)  (  1,  980,  330)  (  7, 1095,  730)  (  7, 1095,  730)
    0  0.4191          0 -0.3181          0 -0.2932          0 -0.3828          0 -0.7193    
   (  7, 1095,  730)  (  6, 1269,  777)  (  6, 1269,  777)  (  6, 1269,  777)  (  6, 1269,  777)
    0  -1.129          0  -1.110          0  -1.248          0  -1.029          0 -0.7244    
   (  6, 1269,  777)  (  6, 1269,  777)  (  6, 1269,  777)  (  6, 1269,  777)  (  6, 1269,  777)
    0 -0.5035          0 -0.4596          0 -0.3460          0 -0.3449          0  0.3530    
   (  6, 1269,  777)  (  6, 1269,  777)  (  6, 1269,  777)  (  6, 1269,  777)  (  3, 1270,  799)
    0  0.4628          0  0.6549          0  0.5099          0  0.7011          0  0.8356    
   (  3, 1270,  799)  (  3, 1270,  799)  (  3, 1270,  799)  (  3, 1270,  799)  (  3, 1270,  799)
    0  0.9616          0  0.9554          0   1.106          0   1.272          0   1.061    
   (  3, 1270,  799)  (  3, 1270,  799)  (  3, 1270,  799)  (  3, 1270,  799)  (  3, 1270,  799)
    1 -0.8962          0  -2.938          0  -2.189          0  -1.234          0 -0.5022    
   (  6, 1170,  800)  (  1,  978,  327)  (  1,  978,  327)  (  1,  978,  327)  (  1,  978,  327)
    0 -0.2403          0 -0.2236          0  0.6901E-01      0  0.1232          0  0.1600    
   (  2,  978,  327)  (  6, 1170,  800)  (  6, 1170,  800)  (  6, 1170,  800)  (  5, 1269,  777)
    0  0.2626          0  0.3460          0  0.5474          0  0.6404          0  0.5592    
   (  4, 1269,  777)  (  1, 1269,  777)  (  1, 1269,  777)  (  3, 1269,  777)  (  4, 1269,  777)
    0  0.5099          0  0.4777          0  0.4367          0  0.4090          0  0.5178    
   (  5, 1269,  777)  (  5, 1269,  777)  (  5, 1269,  777)  (  5, 1269,  777)  (  5, 1269,  777)
    0  0.5696          0  0.8452          0  0.8205          0  0.6844          0   1.065    
   (  5, 1269,  777)  (  5, 1269,  777)  (  5, 1269,  777)  (  5, 1269,  777)  (  5, 1269,  777)
    0   1.039          0   1.070          0  0.8392          0  0.7036          0  0.5410    
   (  5, 1269,  777)  (  5, 1269,  777)  (  5, 1269,  777)  (  5, 1269,  777)  (  4, 1269,  777)
    1  0.1421          0 -0.7134          0 -0.8805          0 -0.9803          0 -0.7322    
   (  6, 1170,  800)  (  1, 1269,  778)  (  1, 1269,  778)  (  1, 1269,  778)  (  1, 1269,  778)
    0 -0.5277          0 -0.3541          0 -0.3518          0 -0.5112          0 -0.4551    
   (  1, 1269,  778)  (  6, 1269,  778)  (  6, 1269,  778)  (  6, 1269,  778)  (  6, 1269,  778)
    0 -0.5609          0 -0.4944          0 -0.4956          0 -0.4512          0 -0.3406    
   (  6, 1269,  778)  (  6, 1269,  778)  (  6, 1269,  778)  (  6, 1269,  778)  (  6, 1269,  778)
    0 -0.2498          0 -0.2433          0  0.2489          0  0.2688          0  0.3245    
   (  7, 1095,  834)  (  7, 1095,  834)  (  3, 1270,  799)  (  3, 1270,  799)  (  3, 1270,  799)
    0  0.4139          0  0.4644          0  0.3847          0  0.4103          0  0.5469    
   (  3, 1270,  799)  (  3, 1270,  799)  (  3, 1270,  799)  (  3, 1270,  799)  (  3, 1270,  799)
    0  0.5990          0  0.5878          0  0.5255          0  0.5244          0  0.4939    
   (  3, 1270,  799)  (  3, 1270,  799)  (  3, 1270,  799)  (  3, 1270,  799)  (  3, 1270,  799)
    1 -0.9275          0  -2.619          0  -1.640          0 -0.8387          0 -0.3675    
   (  1,  978,  327)  (  1,  978,  327)  (  1,  978,  327)  (  1,  978,  327)  (  1,  978,  327)
    0  0.2573          0 -0.2033          0 -0.2006          0 -0.3951          0 -0.6906    
   (  6, 1170,  800)  (  6, 1170,  800)  (  6, 1269,  777)  (  6, 1269,  777)  (  6, 1269,  777)
    0  -1.066          0  -1.276          0  -1.452          0  -1.271          0 -0.8616    
   (  6, 1269,  777)  (  6, 1269,  777)  (  6, 1269,  777)  (  6, 1269,  777)  (  6, 1269,  777)
    0 -0.5671          0 -0.3949          0 -0.2647          0 -0.1986          0 -0.1840    
   (  6, 1269,  777)  (  6, 1269,  777)  (  6, 1269,  777)  (  6, 1269,  777)  (  6, 1269,  777)
    0  0.2453          0  0.3696          0  0.3439          0  0.5969          0  0.9139    
   (  3, 1270,  799)  (  3, 1270,  799)  (  3, 1270,  799)  (  3, 1270,  799)  (  3, 1270,  799)
    0   1.017          0   1.119          0  0.9320          0  0.8057          0  0.4670    
   (  3, 1270,  799)  (  3, 1270,  799)  (  3, 1270,  799)  (  3, 1270,  799)  (  3, 1270,  799)
    1 -0.2523          0 -0.9196          0 -0.9311          0 -0.7562          0 -0.4116    
   (  7, 1095,  730)  (  1, 1260,  797)  (  1, 1260,  797)  (  1, 1260,  797)  (  1, 1260,  797)
    0 -0.2199          0  0.1716          0 -0.1207          0 -0.1335          0 -0.2172    
   (  6, 1260,  797)  (  6, 1170,  800)  (  6, 1269,  778)  (  6, 1269,  778)  (  6, 1269,  778)
    0  0.3470          0  0.4188          0  0.4410          0  0.4476          0  0.4249    
   (  1, 1269,  777)  (  1, 1269,  777)  (  1, 1269,  777)  (  1, 1269,  777)  (  1, 1269,  777)
    0  0.4068          0  0.4562          0  0.4375          0  0.5041          0  0.5552    
   (  1, 1269,  777)  (  4, 1269,  777)  (  5, 1269,  777)  (  6, 1269,  777)  (  6, 1269,  777)
    0  0.5916          0  0.6228          0  0.5754          0  0.4106          0  0.5278    
   (  6, 1269,  777)  (  6, 1269,  777)  (  6, 1269,  777)  (  6, 1269,  777)  (  6, 1269,  777)
    0  0.6038          0  0.6791          0  0.7279          0  0.7891          0  0.6969    
   (  6, 1269,  777)  (  1,  974,  324)  (  1,  974,  324)  (  2,  974,  324)  (  2,  974,  324)
    1 -0.9322          0  -2.971          0  -1.558          0 -0.7160          0 -0.2830    
   (  1,  978,  327)  (  1,  978,  327)  (  1,  978,  327)  (  1,  978,  327)  (  1,  978,  327)
    0  0.1795          0 -0.1643          0 -0.6947E-01      0  0.1494          0 -0.1975    
   (  6, 1170,  800)  (  6, 1170,  800)  (  6, 1269,  777)  (  6, 1170,  800)  (  6, 1269,  777)
    0 -0.3046          0 -0.3910          0 -0.4634          0 -0.4332          0 -0.3724    
   (  6, 1269,  777)  (  6, 1269,  777)  (  6, 1269,  777)  (  7, 1095,  834)  (  7, 1095,  834)
    0 -0.2928          0 -0.2358          0 -0.1944          0 -0.1913          0  0.2101    
   (  7, 1095,  834)  (  7, 1095,  834)  (  7, 1095,  834)  (  7, 1095,  834)  (  3, 1270,  799)
    0  0.2360          0  0.3442          0  0.3234          0  0.3474          0  0.4828    
   (  3, 1270,  799)  (  3, 1270,  799)  (  3, 1270,  799)  (  3, 1270,  799)  (  3, 1270,  799)
    0  0.4937          0  0.4812          0  0.4194          0  0.3892          0  0.2962    
   (  3, 1270,  799)  (  3, 1270,  799)  (  3, 1270,  799)  (  3, 1270,  799)  (  3, 1270,  799)
    1 -0.2061          0 -0.3416          0 -0.4621          0 -0.6632          0 -0.8089    
   (  7, 1095,  730)  (  4, 1269,  777)  (  5, 1269,  777)  (  5, 1269,  777)  (  6, 1269,  777)
    0 -0.8140          0 -0.7974          0 -0.5540          0 -0.6101          0 -0.7554    
   (  6, 1269,  777)  (  6, 1269,  777)  (  6, 1269,  777)  (  6, 1269,  777)  (  6, 1269,  777)
    0 -0.8359          0 -0.7580          0 -0.6344          0 -0.5607          0 -0.4606    
   (  6, 1269,  777)  (  6, 1269,  777)  (  6, 1269,  777)  (  6, 1269,  777)  (  6, 1269,  777)
    0 -0.3698          0 -0.3201          0 -0.2141          0  0.1710          0  0.1894    
   (  6, 1269,  777)  (  6, 1269,  777)  (  6, 1269,  777)  (  2,  974,  324)  (  2,  978,  327)
    0  0.2448          0  0.3356          0  0.4179          0  0.3881          0  0.5777    
   (  1,  978,  327)  (  1,  978,  327)  (  1,  978,  327)  (  1,  978,  327)  (  1,  978,  327)
    0  0.8610          0   1.014          0   1.037          0  0.8682          0  0.5585    
   (  1,  978,  327)  (  1,  978,  327)  (  1,  978,  327)  (  1,  978,  327)  (  3, 1270,  799)
    1  -2.487          0  -4.527          0  -1.181          0 -0.3663          0  0.1615    
   (  1,  978,  327)  (  1,  978,  327)  (  1,  978,  327)  (  1,  978,  327)  (  7, 1095,  730)
    0  0.1526          0 -0.1461          0 -0.5198E-01      0  0.1228          0 -0.1586    
   (  6, 1170,  800)  (  6, 1170,  800)  (  7, 1269,  776)  (  6, 1170,  800)  (  7, 1269,  776)
    0 -0.2484          0 -0.3236          0 -0.3937          0  0.3827          0  0.3417    
   (  7, 1269,  776)  (  7, 1269,  776)  (  7, 1269,  776)  (  5, 1269,  778)  (  5, 1269,  778)
    0  0.2873          0  0.2568          0  0.2484          0  0.2936          0  0.3720    
   (  5, 1269,  778)  (  5, 1269,  778)  (  5, 1269,  778)  (  5, 1269,  778)  (  5, 1269,  778)
    0  0.4485          0  0.5919          0  0.5900          0  0.4884          0  0.4774    
   (  5, 1269,  778)  (  5, 1269,  778)  (  5, 1269,  778)  (  5, 1269,  778)  (  5, 1269,  778)
    0  0.5733          0  0.5404          0  0.4814          0  0.4631          0  0.3738    
   (  5, 1269,  778)  (  5, 1269,  778)  (  5, 1269,  778)  (  5, 1269,  778)  (  5, 1269,  778)
    1 -0.2647          0 -0.3237          0 -0.3430          0 -0.2279          0 -0.1557    
   (  7, 1095,  730)  (  1,  559, 1061)  (  1,  559, 1061)  (  1,  559, 1061)  (  1,  559, 1061)
    0 -0.1073          0 -0.9163E-01      0 -0.7632E-01      0 -0.1296          0 -0.1886    
   (  7, 1095,  834)  (  7, 1095,  834)  (  7, 1095,  834)  (  7, 1095,  834)  (  7, 1095,  834)
    0 -0.2950          0 -0.3768          0 -0.4185          0 -0.4491          0 -0.4211    
   (  7, 1095,  834)  (  7, 1095,  834)  (  7, 1095,  834)  (  7, 1095,  834)  (  7, 1095,  834)
    0 -0.3485          0 -0.3320          0 -0.2847          0 -0.2605          0  0.2400    
   (  7, 1095,  834)  (  7, 1095,  834)  (  7, 1095,  834)  (  7, 1095,  834)  (  1,  978,  327)
    0  0.2643          0  0.2627          0  0.1998          0  0.2745          0  0.3264    
   (  1,  978,  327)  (  1,  978,  327)  (  1,  978,  327)  (  1,  978,  327)  (  1,  978,  327)
    0  0.3756          0  0.4259          0  0.4838          0  0.5204          0  0.4730    
   (  1,  978,  327)  (  1,  978,  327)  (  1,  978,  327)  (  1,  978,  327)  (  2,  978,  327)
    1  -1.693          0  -3.420          0 -0.9925          0 -0.2793          0 -0.1536    
   (  1,  978,  327)  (  1,  978,  327)  (  1,  978,  327)  (  1,  978,  327)  (  6, 1269,  778)
    0 -0.1882          0 -0.2631          0 -0.3278          0 -0.3432          0 -0.6421    
   (  6, 1269,  778)  (  6, 1269,  778)  (  6, 1269,  778)  (  6, 1269,  778)  (  6, 1269,  778)
    0 -0.8504          0 -0.8151          0 -0.6739          0 -0.4445          0 -0.2648    
   (  6, 1269,  778)  (  6, 1269,  778)  (  6, 1269,  778)  (  6, 1269,  778)  (  6, 1269,  778)
    0 -0.1513          0 -0.9971E-01      0 -0.1009          0 -0.1338          0 -0.1876    
   (  6, 1269,  778)  (  2,  974,  324)  (  2,  974,  324)  (  2,  974,  324)  (  2,  974,  324)
    0 -0.2572          0 -0.3900          0 -0.4625          0 -0.4481          0 -0.3787    
   (  2,  974,  324)  (  2,  974,  324)  (  2,  974,  324)  (  2,  974,  324)  (  2,  974,  324)
    0  0.4940          0  0.4701          0  0.3813          0  0.3124          0  0.2153    
   (  3, 1270,  799)  (  3, 1270,  799)  (  3, 1270,  799)  (  3, 1270,  799)  (  3, 1270,  799)
    1 -0.1549          0  0.1664          0 -0.2064          0 -0.1865          0 -0.1377    
   (  7, 1095,  730)  (  7, 1095,  730)  (  1,  982,  332)  (  1,  982,  332)  (  1,  982,  332)
    0 -0.8878E-01      0 -0.8805E-01      0 -0.9703E-01      0 -0.1276          0  0.1874    
   (  1,  982,  332)  (  1, 1095,  834)  (  1, 1095,  834)  (  7, 1095,  834)  (  2,  974,  324)
    0  0.2911          0  0.3599          0  0.3621          0  0.3596          0  0.3235    
   (  1,  974,  324)  (  1,  974,  324)  (  1,  974,  324)  (  1,  974,  324)  (  1,  974,  324)
    0  0.2812          0  0.2735          0  0.2618          0  0.2939          0  0.3485    
   (  1,  974,  324)  (  1,  974,  324)  (  1,  974,  324)  (  1,  974,  324)  (  1,  974,  324)
    0  0.4548          0  0.5654          0  0.6133          0  0.4765          0  0.6812    
   (  2,  974,  324)  (  2,  974,  324)  (  2,  974,  324)  (  2,  974,  324)  (  2,  974,  324)
    0  0.8213          0  0.8417          0  0.8403          0  0.8294          0  0.7443    
   (  2,  974,  324)  (  2,  974,  324)  (  2,  974,  324)  (  2,  974,  324)  (  1,  974,  324)
    1 -0.4227          0  -1.402          0 -0.7709          0 -0.2859          0 -0.1144    
   (  1,  974,  324)  (  1,  974,  324)  (  1,  974,  324)  (  1,  974,  324)  (  2,  974,  324)
    0 -0.5316E-01      0 -0.5866E-01      0 -0.6913E-01      0 -0.9490E-01      0 -0.1663    
   (  7, 1269,  776)  (  7, 1269,  776)  (  7, 1269,  776)  (  7, 1269,  776)  (  7, 1269,  776)
    0 -0.2560          0 -0.3460          0 -0.4139          0 -0.3853          0 -0.2813    
   (  7, 1269,  776)  (  7, 1269,  776)  (  7, 1269,  776)  (  7, 1269,  776)  (  7, 1269,  776)
    0 -0.1808          0 -0.1171          0 -0.8158E-01      0  0.8909E-01      0  0.1148    
   (  7, 1269,  776)  (  7, 1269,  776)  (  7, 1269,  776)  (  7, 1095,  834)  (  3, 1270,  799)
    0  0.1462          0  0.2101          0  0.2581          0  0.2525          0  0.2543    
   (  3, 1270,  799)  (  3, 1270,  799)  (  3, 1270,  799)  (  3, 1270,  799)  (  3, 1270,  799)
    0  0.3529          0  0.3529          0  0.3054          0  0.2644          0  0.1818    
   (  3, 1270,  799)  (  3, 1270,  799)  (  3, 1270,  799)  (  3, 1270,  799)  (  3, 1270,  799)
    1 -0.1322          0 -0.2549          0 -0.3062          0 -0.2509          0 -0.1701    
   (  7, 1095,  730)  (  2,  974,  324)  (  2,  974,  324)  (  2,  974,  324)  (  2,  974,  324)
    0 -0.9369E-01      0 -0.7657E-01      0 -0.9864E-01      0 -0.1255          0 -0.1417    
   (  2,  974,  324)  (  2,  974,  324)  (  1,  989,  328)  (  2,  989,  328)  (  2,  989,  328)
    0 -0.1823          0 -0.2241          0 -0.2198          0 -0.2157          0 -0.1946    
   (  2,  989,  328)  (  7, 1095,  834)  (  7, 1095,  834)  (  7, 1095,  834)  (  7, 1095,  834)
    0 -0.1778          0 -0.1674          0 -0.1513          0 -0.1546          0 -0.1576    
   (  7, 1095,  834)  (  7, 1095,  834)  (  7, 1095,  834)  (  7, 1095,  834)  (  7, 1095,  834)
    0 -0.1650          0  0.1761          0  0.1857          0  0.1692          0  0.1187    
   (  7, 1095,  834)  (  3, 1270,  799)  (  3, 1270,  799)  (  3, 1270,  799)  (  3, 1270,  799)
    0  0.1478          0  0.1876          0  0.2026          0  0.2328          0  0.2525    
   (  3, 1270,  799)  (  3, 1270,  799)  (  3, 1270,  799)  (  3, 1270,  799)  (  3, 1270,  799)
    1 -0.1095          0 -0.1870          0 -0.2610          0 -0.2449          0 -0.1787    
   (  7, 1095,  730)  (  1, 1265,  772)  (  1,  974,  324)  (  1,  974,  324)  (  1,  974,  324)
    0 -0.1198          0 -0.1679          0 -0.2045          0 -0.2457          0 -0.3121    
   (  1,  974,  324)  (  1,  974,  324)  (  1,  974,  324)  (  2,  974,  324)  (  2,  974,  324)
    0 -0.3568          0 -0.4466          0 -0.5292          0 -0.4873          0 -0.3474    
   (  2,  974,  324)  (  2,  974,  324)  (  2,  974,  324)  (  2,  974,  324)  (  2,  974,  324)
    0 -0.2307          0 -0.1626          0 -0.1309          0 -0.1347          0 -0.1454    
   (  2,  974,  324)  (  2,  974,  324)  (  2,  974,  324)  (  2,  974,  324)  (  2,  974,  324)
    0 -0.1530          0 -0.1558          0  0.1544          0  0.2586          0  0.3500    
   (  2,  974,  324)  (  2,  974,  324)  (  7, 1095,  834)  (  7, 1095,  834)  (  7, 1095,  834)
    0  0.3870          0  0.3676          0  0.2923          0  0.2193          0  0.1271    
   (  7, 1095,  834)  (  7, 1095,  834)  (  7, 1095,  834)  (  3, 1270,  799)  (  3, 1270,  799)
    1 -0.1148          0 -0.1978          0 -0.1857          0 -0.1358          0 -0.1048    
   (  7, 1095,  730)  (  1,  717,  970)  (  1,  717,  970)  (  1, 1095,  834)  (  1,  989,  328)
    0 -0.9700E-01      0 -0.1037          0 -0.1040          0 -0.1584          0 -0.2262    
   (  1,  989,  328)  (  1,  989,  328)  (  2,  989,  328)  (  2,  989,  328)  (  2,  989,  328)
    0 -0.2821          0  0.3195          0  0.2896          0  0.2623          0  0.2287    
   (  2,  989,  328)  (  1,  974,  324)  (  1,  974,  324)  (  1,  974,  324)  (  1,  974,  324)
    0  0.2172          0  0.2122          0  0.2131          0  0.2697          0  0.3631    
   (  1,  974,  324)  (  1,  974,  324)  (  1,  974,  324)  (  1,  974,  324)  (  1,  974,  324)
    0  0.4881          0  0.5601          0  0.6158          0  0.5864          0  0.5099    
   (  1,  974,  324)  (  2,  974,  324)  (  2,  974,  324)  (  2,  974,  324)  (  2,  974,  324)
    0  0.3480          0  0.5542          0  0.6282          0  0.7542          0  0.9002    
   (  2,  974,  324)  (  2,  974,  324)  (  1,  974,  324)  (  1,  974,  324)  (  1,  974,  324)
    1 -0.3538          0  -1.106          0 -0.5526          0 -0.1862          0 -0.5431E-01
   (  1,  974,  324)  (  1,  974,  324)  (  1,  974,  324)  (  1,  974,  324)  (  2,  974,  324)
    0 -0.4169E-01      0  0.2907E-01      0  0.2722E-01      0  0.2842E-01      0  0.4107E-01
   (  2,  974,  324)  (  5, 1088,  768)  (  5, 1087,  768)  (  7, 1095,  834)  (  6, 1095,  834)
    0  0.5711E-01      0  0.9352E-01      0  0.1533          0  0.2045          0  0.1907    
   (  6, 1095,  834)  (  6, 1095,  834)  (  6, 1095,  834)  (  6, 1095,  834)  (  6, 1095,  834)
    0  0.1501          0  0.1226          0  0.1167          0  0.1357          0  0.1559    
   (  7, 1095,  834)  (  7, 1095,  834)  (  7, 1095,  834)  (  7, 1095,  834)  (  7, 1095,  834)
    0  0.1676          0  0.1918          0  0.1625          0  0.2092          0  0.2924    
   (  7, 1095,  834)  (  7, 1095,  834)  (  7, 1095,  834)  (  7, 1095,  834)  (  7, 1095,  834)
    0  0.3114          0  0.2893          0  0.2355          0  0.1857          0  0.9637E-01
   (  7, 1095,  834)  (  7, 1095,  834)  (  7, 1095,  834)  (  7, 1095,  834)  (  6, 1095,  834)
    1 -0.1293          0 -0.4315          0 -0.2737          0 -0.1504          0 -0.9366E-01
   (  7, 1095,  730)  (  2,  974,  324)  (  2,  974,  324)  (  2,  974,  324)  (  2,  974,  324)
    0 -0.7834E-01      0 -0.8066E-01      0 -0.9261E-01      0 -0.1610          0 -0.2123    
   (  1, 1095,  834)  (  7, 1095,  834)  (  7, 1095,  834)  (  7, 1095,  834)  (  7, 1095,  834)
    0 -0.2689          0 -0.2885          0 -0.2337          0 -0.2027          0 -0.1792    
   (  7, 1095,  834)  (  7, 1095,  834)  (  7, 1095,  834)  (  7, 1095,  834)  (  7, 1095,  834)
    0 -0.1616          0 -0.1306          0 -0.1014          0 -0.9856E-01      0 -0.1001    
   (  7, 1095,  834)  (  7, 1095,  834)  (  7, 1095,  834)  (  7, 1095,  834)  (  7, 1095,  834)
    0  0.1075          0  0.9659E-01      0  0.8263E-01      0  0.5848E-01      0  0.5071E-01
   (  2,  974,  324)  (  2,  974,  324)  (  2,  974,  324)  (  7, 1265,  772)  (  2,  989,  328)
    0  0.8977E-01      0  0.1299          0  0.1608          0  0.2074          0  0.2502    
   (  2,  989,  328)  (  2,  989,  328)  (  2,  989,  328)  (  2,  989,  328)  (  2,  989,  328)
    1 -0.1043          0 -0.2793          0 -0.3264          0 -0.2067          0 -0.1336    
   (  7, 1095,  730)  (  1, 1265,  772)  (  1, 1265,  772)  (  1, 1265,  772)  (  1,  974,  324)
    0 -0.7845E-01      0 -0.9442E-01      0 -0.1362          0 -0.1779          0 -0.2616    
   (  1,  974,  324)  (  2,  974,  324)  (  2,  974,  324)  (  2,  974,  324)  (  2,  974,  324)
    0 -0.3416          0 -0.4729          0 -0.6851          0 -0.7578          0 -0.5316    
   (  2,  974,  324)  (  2,  974,  324)  (  2,  974,  324)  (  2,  974,  324)  (  2,  974,  324)
    0 -0.2925          0 -0.1673          0 -0.1216          0 -0.1041          0 -0.8785E-01
   (  2,  974,  324)  (  2,  974,  324)  (  2,  974,  324)  (  2,  974,  324)  (  2,  974,  324)
    0 -0.6880E-01      0  0.9484E-01      0  0.1334          0  0.1505          0  0.1959    
   (  2,  974,  324)  (  7, 1095,  834)  (  7, 1095,  834)  (  7, 1095,  834)  (  7, 1095,  834)
    0  0.3504          0  0.4268          0  0.4023          0  0.3206          0  0.1254    
   (  7, 1095,  834)  (  7, 1095,  834)  (  7, 1095,  834)  (  7, 1095,  834)  (  7, 1095,  834)
    1 -0.1098          0 -0.2484          0 -0.1623          0 -0.1065          0 -0.8610E-01
   (  7, 1095,  730)  (  1, 1095,  834)  (  1, 1095,  834)  (  1, 1095,  834)  (  1, 1095,  834)
    0 -0.6770E-01      0 -0.7506E-01      0 -0.1426          0 -0.2197          0 -0.2968    
   (  1, 1095,  834)  (  7, 1095,  834)  (  7, 1095,  834)  (  7, 1095,  834)  (  7, 1095,  834)
    0 -0.3251          0 -0.2456          0  0.1842          0  0.1802          0  0.1946    
   (  7, 1095,  834)  (  7, 1095,  834)  (  1,  974,  324)  (  1,  974,  324)  (  1,  974,  324)
    0  0.2113          0  0.2041          0  0.2041          0  0.2794          0  0.4009    
   (  1,  974,  324)  (  1,  974,  324)  (  1,  974,  324)  (  1,  974,  324)  (  1,  974,  324)
    0  0.4992          0  0.4936          0  0.4508          0  0.2818          0  0.3196    
   (  1,  974,  324)  (  1,  974,  324)  (  1,  974,  324)  (  1,  974,  324)  (  1,  974,  324)
    0  0.3946          0  0.4787          0  0.5758          0  0.8294          0   1.337    
   (  1,  974,  324)  (  1,  974,  324)  (  1,  974,  324)  (  1,  974,  324)  (  1,  974,  324)
    1 -0.6021          0  -1.542          0 -0.5411          0 -0.1466          0 -0.4760E-01
   (  1,  974,  324)  (  1,  974,  324)  (  1,  974,  324)  (  2,  974,  324)  (  2,  974,  324)
    0  0.2490E-01      0 -0.1739E-01      0 -0.2958E-01      0 -0.4004E-01      0 -0.6265E-01
   (  5, 1088,  768)  (  2,  989,  328)  (  2,  989,  328)  (  2,  989,  328)  (  2,  989,  328)
    0 -0.9955E-01      0 -0.1490          0 -0.2001          0 -0.3105          0 -0.3230    
   (  2,  989,  328)  (  2,  989,  328)  (  2,  989,  328)  (  2,  989,  328)  (  2,  989,  328)
    0 -0.2289          0 -0.1594          0 -0.1422          0 -0.1451          0  0.1389    
   (  2,  989,  328)  (  2,  989,  328)  (  2,  989,  328)  (  2,  989,  328)  (  7, 1095,  834)
    0  0.1294          0  0.1352          0  0.1181          0  0.1183          0  0.1879    
   (  7, 1095,  834)  (  7, 1095,  834)  (  7, 1095,  834)  (  7, 1095,  834)  (  7, 1095,  834)
    0  0.2289          0  0.2431          0  0.2358          0  0.2291          0  0.1120    
   (  7, 1095,  834)  (  7, 1095,  834)  (  7, 1095,  834)  (  7, 1095,  834)  (  7, 1095,  834)
[...]
   (  4,***,819)  (  4,***,821)  (  4,***,794)  (  4,***,819)  (  3,958,739)
  0   1408.      0  -1008.      0  -587.6      0   538.8      0  -558.3    
   (  3,958,739)  (  3,958,739)  (  4,900,708)  (  4,***,819)  (  4,900,707)
  0  -644.1      0   784.1      0  -2583.      0   2749.      0  -876.0    
   (  6,***,823)  (  3,965,739)  (  3,965,739)  (  3,965,739)  (  3,965,739)
  0  -713.8      0  -716.4      0   922.7      0   999.8      0  -1137.    
   (  4,***,794)  (  4,***,819)  (  4,***,821)  (  3,979,744)  (  3,979,744)
  1   6096.      0   4358.      0   1888.      0  -1039.      0  -1343.    
   (  1,974,324)  (  4,***,821)  (  3,979,744)  (  4,899,708)  (  7,965,739)
  0   1230.      0  -1583.      0   1629.      0  -780.9      0   556.4    
   (  7,965,739)  (  3,965,739)  (  3,965,739)  (  3,965,739)  (  5,908,710)
  0   657.0      0  -753.8      0  -774.2      0  -686.3      0   488.5    
   (  4,***,819)  (  7,***,823)  (  4,900,708)  (  4,904,710)  (  4,***,794)
  0  -620.8      0   941.3      0  -846.4      0   599.0      0   439.1    
   (  3,958,739)  (  3,958,739)  (  3,958,739)  (  3,958,739)  (  4,900,708)
  0   557.7      0   564.4      0   1249.      0  -3097.      0   1687.    
   (  4,***,821)  (  4,***,819)  (  3,965,739)  (  3,965,739)  (  3,965,739)
  0  -685.1      0  -707.0      0   611.6      0  -529.7      0  -616.0    
   (  4,908,711)  (  5,907,710)  (  7,***,823)  (  3,979,744)  (  4,904,710)
  1  -1052.      0   1050.      0   1118.      0  -743.1      0   1233.    
   (  3,979,744)  (  7,***,823)  (  4,907,711)  (  4,908,711)  (  3,965,739)
  0  -2283.      0   1031.      0   482.1      0   753.3      0   1214.    
   (  3,965,739)  (  3,965,739)  (  4,***,819)  (  7,964,740)  (  7,965,739)
  0  -1003.      0   520.8      0  -477.4      0  -488.4      0  -799.0    
   (  7,965,739)  (  7,965,739)  (  5,907,710)  (  4,906,710)  (  3,958,739)
  0   1048.      0  -846.8      0  -491.0      0   473.3      0  -514.0    
   (  3,958,739)  (  3,958,739)  (  4,900,708)  (  4,***,819)  (  4,900,707)
  0  -466.9      0  -549.4      0  -517.4      0   1320.      0  -2012.    
   (  6,***,823)  (  5,908,710)  (  4,898,707)  (  3,965,739)  (  3,965,739)
  0   653.6      0  -450.5      0   567.6      0   700.8      0  -853.7    
   (  3,965,739)  (  4,***,819)  (  4,***,821)  (  3,979,744)  (  3,979,744)
  1   1600.      0   1256.      0   926.8      0   902.5      0  -2465.    
   (  1,***,772)  (  4,***,821)  (  3,979,744)  (  3,965,739)  (  3,965,739)
  0   1508.      0  -429.9      0  -491.4      0  -568.1      0  -1064.    
   (  3,965,739)  (  4,898,707)  (  5,908,710)  (  7,964,740)  (  7,965,739)
  0   1194.      0  -720.4      0  -693.0      0  -527.2      0   329.9    
   (  7,965,739)  (  7,965,739)  (  4,900,708)  (  4,904,710)  (  4,***,794)
  0  -488.3      0   704.7      0  -597.5      0   404.9      0  -401.7    
   (  3,958,739)  (  3,958,739)  (  3,958,739)  (  3,958,739)  (  5,900,707)
  0  -562.1      0   1875.      0  -1537.      0  -539.6      0  -535.8    
   (  3,965,739)  (  3,965,739)  (  3,965,739)  (  4,***,821)  (  4,***,819)
  0  -621.7      0   660.9      0   506.5      0  -433.7      0  -438.8    
   (  4,908,711)  (  4,907,711)  (  7,***,823)  (  3,979,744)  (  4,904,710)
  1   1128.      0  -926.0      0   931.1      0   580.4      0  -406.4    
   (  1,717,970)  (  4,906,710)  (  4,907,711)  (  4,898,707)  (  4,***,819)
  0  -389.7      0  -1087.      0   1641.      0  -883.4      0   1140.    
   (  4,***,821)  (  3,965,739)  (  3,965,739)  (  3,965,739)  (  7,965,739)
  0  -1087.      0   551.9      0   418.5      0  -401.1      0  -575.1    
   (  7,965,739)  (  7,965,739)  (  4,907,711)  (  4,906,710)  (  3,958,739)
  0   754.3      0  -650.6      0   373.8      0   378.2      0  -436.9    
   (  3,958,739)  (  3,958,739)  (  3,958,739)  (  4,***,819)  (  4,900,707)
  0  -403.3      0  -487.0      0  -469.7      0   503.1      0  -1621.    
   (  4,***,819)  (  5,908,710)  (  4,898,707)  (  3,965,739)  (  3,965,739)
  0   1218.      0  -396.9      0  -498.5      0   666.3      0  -817.4    
   (  3,965,739)  (  4,***,819)  (  3,979,744)  (  3,979,744)  (  3,979,744)
  1   4655.      0   3212.      0   1408.      0   2251.      0  -2396.    
   (  1,974,324)  (  4,***,821)  (  3,979,744)  (  3,965,739)  (  3,965,739)
  0   502.7      0  -296.8      0   277.8      0  -356.0      0  -600.5    
   (  3,965,739)  (  4,898,707)  (  4,908,711)  (  7,964,740)  (  7,965,739)
  0   629.0      0  -393.4      0  -555.9      0  -471.6      0   348.5    
   (  7,965,739)  (  7,965,739)  (  4,900,708)  (  4,904,710)  (  3,958,739)
  0  -523.1      0   718.9      0  -570.1      0  -369.2      0   401.2    
   (  3,958,739)  (  3,958,739)  (  3,958,739)  (  4,***,819)  (  4,900,708)
  0   343.3      0   1031.      0  -1669.      0   720.7      0  -403.5    
   (  4,***,821)  (  3,965,739)  (  3,965,739)  (  3,965,739)  (  4,***,819)
  0   463.4      0  -497.7      0   413.0      0   364.9      0   313.8    
   (  4,898,707)  (  5,907,710)  (  2,974,324)  (  2,974,324)  (  2,974,324)
  1  -1307.      0   1011.      0   831.4      0   495.6      0  -338.7    
   (  3,979,744)  (  4,***,819)  (  4,907,711)  (  4,898,707)  (  4,***,819)
  0   507.2      0  -1274.      0   1069.      0  -633.0      0   1021.    
   (  3,965,739)  (  3,965,739)  (  3,965,739)  (  7,965,739)  (  7,965,739)
  0  -767.9      0   357.3      0   334.1      0  -340.8      0  -474.4    
   (  7,965,739)  (  5,900,707)  (  4,907,711)  (  4,906,710)  (  3,958,739)
  0   640.9      0  -553.7      0   317.2      0   296.0      0  -303.4    
   (  3,958,739)  (  3,958,739)  (  3,958,739)  (  4,***,819)  (  4,900,707)
  0  -272.1      0  -290.1      0   360.3      0  -1023.      0   768.8    
   (  4,***,819)  (  5,908,710)  (  3,965,739)  (  3,965,739)  (  3,965,739)
  0  -301.3      0  -328.1      0  -439.7      0   607.2      0  -734.1    
   (  4,899,708)  (  4,***,819)  (  3,979,744)  (  3,979,744)  (  3,979,744)
  1   2012.      0   1403.      0   881.5      0  -616.0      0   1122.    
   (  1,***,772)  (  1,***,772)  (  3,979,744)  (  4,899,708)  (  3,965,739)
  0  -1393.      0   443.5      0  -292.0      0   286.8      0  -585.2    
   (  3,965,739)  (  3,965,739)  (  5,908,710)  (  7,965,739)  (  7,965,739)
  0   832.3      0  -604.0      0  -584.7      0  -446.2      0   305.0    
   (  7,965,739)  (  7,965,739)  (  4,900,708)  (  4,904,710)  (  3,958,739)
  0  -393.3      0   468.8      0  -337.1      0  -218.2      0   235.7    
   (  3,958,739)  (  3,958,739)  (  3,958,739)  (  4,***,819)  (  4,900,708)
  0   201.8      0   256.7      0   591.1      0  -1547.      0   858.3    
   (  4,***,821)  (  4,***,819)  (  3,965,739)  (  3,965,739)  (  3,965,739)
  0   494.0      0   581.2      0  -419.2      0  -407.9      0  -248.1    
   (  4,898,707)  (  4,907,711)  (  4,906,710)  (  3,979,744)  (  4,904,710)
  1  -1128.      0   902.4      0   690.0      0   422.9      0   641.2    
   (  3,979,744)  (  4,***,819)  (  4,907,711)  (  4,898,707)  (  3,965,739)
  0  -1332.      0   683.8      0   391.2      0   377.5      0   517.4    
   (  3,965,739)  (  3,965,739)  (  4,***,819)  (  4,***,821)  (  4,900,708)
  0   565.6      0  -691.2      0   533.1      0  -293.8      0  -314.5    
   (  7,965,739)  (  7,965,739)  (  7,965,739)  (  7,965,739)  (  3,958,739)
  0   509.0      0  -489.9      0   314.4      0   340.9      0  -343.1    
   (  3,958,739)  (  3,958,739)  (  3,958,739)  (  4,***,819)  (  4,900,707)
  0  -346.4      0  -344.3      0   793.4      0  -1113.      0   385.1    
   (  4,***,819)  (  5,908,710)  (  3,965,739)  (  3,965,739)  (  3,965,739)
  0  -277.3      0  -299.8      0  -394.2      0   577.3      0  -804.2    
   (  4,899,708)  (  4,***,819)  (  3,979,744)  (  3,979,744)  (  3,979,744)
  1   6227.      0  -3657.      0   1423.      0  -738.5      0   594.5    
   (  3,979,744)  (  3,979,744)  (  3,979,744)  (  4,899,708)  (  3,965,739)
  0  -1198.      0   670.4      0  -213.8      0   163.4      0  -225.7    
   (  3,965,739)  (  3,965,739)  (  5,908,710)  (  3,997,755)  (  4,900,707)
  0   266.8      0   524.8      0  -679.9      0   473.0      0  -304.0    
   (  4,***,819)  (  7,965,739)  (  7,965,739)  (  7,965,739)  (  2,974,324)
  0  -379.7      0   533.3      0  -427.8      0  -287.5      0   283.9    
   (  3,958,739)  (  3,958,739)  (  3,958,739)  (  4,***,819)  (  4,900,708)
  0   212.6      0   472.5      0  -1077.      0   618.7      0  -288.2    
   (  4,***,821)  (  3,965,739)  (  3,965,739)  (  3,965,739)  (  4,***,819)
  0   375.8      0   442.5      0   465.0      0   441.5      0   402.8    
   (  2,974,324)  (  2,974,324)  (  2,974,324)  (  2,974,324)  (  2,974,324)
  1  -873.5      0   743.7      0   607.3      0   392.0      0  -291.2    
   (  3,979,744)  (  4,***,819)  (  4,907,711)  (  4,898,707)  (  4,***,819)
  0   596.5      0  -1099.      0   521.7      0   265.8      0   388.7    
   (  3,965,739)  (  3,965,739)  (  3,965,739)  (  4,***,821)  (  4,900,708)
  0  -349.2      0  -491.5      0   551.6      0  -325.0      0  -351.3    
   (  4,***,819)  (  3,958,739)  (  3,958,739)  (  3,958,739)  (  7,965,739)
  0   425.4      0  -411.6      0   253.3      0   255.7      0  -228.1    
   (  7,965,739)  (  7,965,739)  (  7,965,739)  (  4,***,819)  (  4,900,707)
  0  -239.7      0  -233.9      0   561.1      0  -844.8      0   315.8    
   (  4,***,819)  (  5,908,710)  (  3,965,739)  (  3,965,739)  (  3,965,739)
  0  -234.2      0  -275.4      0  -342.7      0   493.8      0  -693.9    
   (  4,899,708)  (  4,***,819)  (  3,979,744)  (  3,979,744)  (  3,979,744)
  1   2301.      0  -1967.      0   1616.      0  -1950.      0  -1302.    
   (  1,***,772)  (  3,979,744)  (  3,979,744)  (  3,979,744)  (  4,***,821)
  0   1114.      0   635.4      0  -869.7      0  -841.3      0  -983.8    
   (  5,897,706)  (  4,***,821)  (  5,897,706)  (  1,***,772)  (  1,***,772)
  0  -1099.      0  -1194.      0   1728.      0  -1713.      0  -1440.    
   (  1,***,772)  (  1,***,772)  (  4,***,819)  (  4,907,711)  (  1,***,772)
  0   1809.      0  -2054.      0   1507.      0  -1509.      0   1353.    
   (  4,899,708)  (  4,***,819)  (  5,***,819)  (  4,899,708)  (  4,***,819)
  0   1331.      0   855.5      0  -839.4      0   600.3      0   719.9    
   (  4,***,819)  (  4,899,708)  (  4,900,708)  (  5,***,819)  (  4,900,708)
  0  -585.6      0   330.4      0   348.1      0   286.5      0   248.6    
   (  4,899,708)  (  5,909,710)  (  4,***,819)  (  5,900,707)  (  4,899,708)
  1  -494.3      0   385.8      0   442.6      0  -499.2      0  -489.6    
   (  5,909,710)  (  1,757,987)  (  5,909,710)  (  4,905,710)  (  5,909,710)
  0   209.5      0   386.5      0   216.7      0  -188.4      0  -236.6    
   (  5,900,707)  (  5,909,710)  (  4,900,708)  (  4,905,710)  (  5,905,709)
  0  -311.5      0  -284.9      0  -249.6      0  -235.8      0  -307.8    
   (  4,904,710)  (  5,908,710)  (  5,904,709)  (  4,909,711)  (  4,899,708)
  0  -409.3      0   208.6      0   265.6      0  -334.3      0   262.2    
   (  4,899,708)  (  4,898,707)  (  4,907,711)  (  4,898,707)  (  4,899,708)
  0   170.9      0   153.4      0  -201.0      0  -132.9      0  -80.62    
   (  4,908,711)  (  4,898,707)  (  4,899,708)  (  5,898,706)  (  5,902,708)
  0  -146.8      0  -100.0      0   118.8      0  -100.8      0   98.46    
   (  4,898,707)  (  5,899,707)  (  5,908,710)  (  4,899,708)  (  4,898,707)
  1  -64.13      0   79.32      0   112.2      0  -81.26      0   68.80    
   (  4,899,708)  (  5,908,710)  (  4,899,708)  (  4,898,707)  (  4,908,711)
  0   82.07      0   82.61      0  -50.67      0   76.17      0   104.4    
   (  4,898,707)  (  5,908,710)  (  5,900,707)  (  4,908,711)  (  4,905,710)
  0  -90.22      0   76.89      0   76.23      0  -94.03      0  -92.81    
   (  4,908,711)  (  4,907,711)  (  5,***,822)  (  4,907,711)  (  5,905,709)
  0  -64.36      0   87.56      0  -70.10      0   58.20      0   51.02    
   (  4,908,711)  (  4,899,708)  (  5,908,710)  (  5,899,707)  (  5,899,707)
  0  -86.69      0  -49.84      0  -65.61      0  -68.07      0   59.46    
   (  4,905,710)  (  5,903,708)  (  4,898,707)  (  4,903,709)  (  4,903,709)
  0  -74.88      0   48.87      0  -59.70      0   85.14      0   72.15    
   (  4,905,710)  (  4,898,707)  (  5,905,709)  (  5,900,707)  (  4,899,708)
  1  -42.64      0   41.54      0   72.21      0  -57.41      0   33.05    
   (  4,898,707)  (  4,***,823)  (  4,898,707)  (  4,899,708)  (  4,903,709)
  0   54.14      0  -45.78      0   31.66      0   44.08      0  -43.02    
   (  4,899,708)  (  4,898,707)  (  5,***,821)  (  4,898,707)  (  4,899,708)
  0  -30.15      0   34.12      0  -40.23      0  -27.58      0   34.40    
   (  4,997,755)  (  4,899,708)  (  4,898,707)  (  4,898,707)  (  4,997,755)
  0  -51.11      0   39.51      0   23.61      0  -42.18      0   40.25    
   (  4,899,708)  (  4,898,707)  (  4,907,711)  (  4,898,707)  (  4,899,708)
  0   28.99      0   21.90      0  -30.90      0  -23.22      0   18.27    
   (  4,908,711)  (  4,898,707)  (  4,899,708)  (  5,***,822)  (  4,899,708)
  0  -29.15      0   21.15      0   21.33      0  -29.11      0   24.59    
   (  4,898,707)  (  4,***,821)  (  5,908,710)  (  4,899,708)  (  4,898,707)
  1   17.65      0  -23.10      0   28.32      0  -16.13      0   17.76    
   (  3,611,781)  (  5,***,821)  (  4,899,708)  (  4,898,707)  (  5,***,821)
  0   23.17      0  -20.18      0   15.26      0   18.28      0  -21.38    
   (  4,898,707)  (  4,899,708)  (  5,***,822)  (  4,899,708)  (  4,898,707)
  0  -15.95      0   18.11      0  -24.72      0  -14.22      0   21.26    
   (  5,***,822)  (  4,898,707)  (  4,899,708)  (  4,899,708)  (  4,997,755)
  0  -31.53      0   22.14      0   13.81      0  -23.45      0   23.87    
   (  4,898,707)  (  4,899,708)  (  4,997,755)  (  4,899,708)  (  4,898,707)
  0  -15.02      0   12.63      0  -24.02      0   14.79      0   10.89    
   (  4,905,710)  (  4,899,708)  (  4,898,707)  (  4,899,708)  (  4,903,709)
  0  -25.33      0   19.56      0  -10.10      0  -17.81      0   21.02    
   (  4,899,708)  (  4,898,707)  (  5,905,709)  (  4,898,707)  (  4,899,708)
  1   13.88      0  -16.12      0   25.73      0  -15.27      0   9.329    
   (  3,611,781)  (  4,899,708)  (  4,898,707)  (  4,899,708)  (  4,903,709)
  0   19.46      0  -15.02      0   9.222      0   14.25      0  -13.12    
   (  4,899,708)  (  4,898,707)  (  5,***,821)  (  4,898,707)  (  4,899,708)
  0  -10.01      0   11.46      0  -13.62      0  -8.706      0   11.80    
   (  4,997,755)  (  4,899,708)  (  4,898,707)  (  4,898,707)  (  4,997,755)
  0  -19.69      0   13.58      0   6.340      0  -12.93      0   13.73    
   (  4,899,708)  (  4,898,707)  (  4,997,755)  (  4,898,707)  (  4,899,708)
  0   7.362      0  -6.698      0  -11.92      0  -6.921      0  -4.002    
   (  5,***,822)  (  4,899,708)  (  4,899,708)  (  5,***,822)  (  5,903,708)
  0  -10.01      0   8.975      0   5.853      0  -8.075      0   8.348    
   (  4,898,707)  (  4,899,708)  (  5,908,710)  (  4,899,708)  (  4,898,707)
  1   10.64      0  -10.15      0   10.17      0   7.398      0   6.874    
   (  3,611,781)  (  5,***,821)  (  4,899,708)  (  5,905,709)  (  5,***,821)
  0   8.305      0   4.687      0   5.308      0   6.252      0  -4.539    
   (  4,898,707)  (  4,997,755)  (  5,***,822)  (  4,899,708)  (  4,898,707)
  0   4.289      0   6.133      0  -5.305      0   3.060      0   8.249    
   (  3,997,756)  (  4,898,707)  (  4,899,708)  (  3,997,756)  (  4,899,708)
  0  -10.16      0   4.513      0   4.357      0  -9.401      0   6.738    
   (  4,898,707)  (  4,899,708)  (  4,997,755)  (  4,899,708)  (  4,898,707)
  0  -5.050      0  -7.016      0  -7.706      0   4.460      0   4.790    
   (  4,905,710)  (  4,898,707)  (  4,898,707)  (  4,***,821)  (  4,898,707)
  0  -8.490      0   4.751      0  -3.199      0  -6.220      0   5.310    
   (  4,899,708)  (  4,898,707)  (  4,898,707)  (  4,898,707)  (  4,899,708)
  1   10.57      0   7.036      0   7.295      0  -6.400      0   4.923    
   (  4,997,755)  (  4,***,823)  (  4,898,707)  (  4,905,710)  (  4,899,708)
  0   5.810      0   4.189      0  -3.656      0   4.263      0  -2.400    
   (  4,899,708)  (  4,997,755)  (  4,997,755)  (  4,898,707)  (  5,905,709)
  0  -3.547      0   3.757      0  -2.728      0  -2.307      0   4.733    
   (  4,997,755)  (  4,899,708)  (  4,898,707)  (  4,997,755)  (  4,898,707)
  0  -5.690      0  -2.386      0   2.278      0  -5.267      0   3.954    
   (  4,899,708)  (  4,899,708)  (  4,899,708)  (  4,898,707)  (  4,899,708)
  0   2.532      0  -3.714      0  -4.167      0  -2.232      0   2.691    
   (  5,***,822)  (  4,899,708)  (  4,899,708)  (  5,***,822)  (  4,899,708)
  0  -4.117      0   2.515      0   2.058      0  -3.683      0   2.840    
   (  4,898,707)  (  4,899,708)  (  5,908,710)  (  4,899,708)  (  4,898,707)
  1   7.345      0   5.018      0   4.166      1   6.629    
   (  4,997,755)  (  3,611,781)  (  3,611,781)  (  3,611,781)



 OUTPUT CONTROL FOR STRESS PERIOD    1   TIME STEP   1
    SAVE HEAD FOR ALL LAYERS

 HEAD WILL BE SAVED ON UNIT   30 AT END OF TIME STEP   1, STRESS PERIOD    1
1
  VOLUMETRIC BUDGET FOR ENTIRE MODEL AT END OF TIME STEP  1 IN STRESS PERIOD   1
  ------------------------------------------------------------------------------

     CUMULATIVE VOLUMES      L**3       RATES FOR THIS TIME STEP      L**3/T
     ------------------                 ------------------------

           IN:                                      IN:
           ---                                      ---
             STORAGE =           0.0000               STORAGE =           0.0000
       CONSTANT HEAD =       25239.0195         CONSTANT HEAD =       25239.0195
               WELLS =      665050.5000                 WELLS =      665050.5000
              DRAINS =           0.0000                DRAINS =           0.0000
       RIVER LEAKAGE =     3575072.2500         RIVER LEAKAGE =     3575072.2500
     HEAD DEP BOUNDS =      205754.4062       HEAD DEP BOUNDS =      205754.4062
            RECHARGE =    25964070.0000              RECHARGE =    25964070.0000

            TOTAL IN =    30435186.0000              TOTAL IN =    30435186.0000

          OUT:                                     OUT:
          ----                                     ----
             STORAGE =           0.0000               STORAGE =           0.0000
       CONSTANT HEAD =       63148.1641         CONSTANT HEAD =       63148.1641
               WELLS =     2871616.2500                 WELLS =     2871616.2500
              DRAINS =     6294072.0000                DRAINS =     6294072.0000
       RIVER LEAKAGE =    21100070.0000         RIVER LEAKAGE =    21100070.0000
     HEAD DEP BOUNDS =      105416.8672       HEAD DEP BOUNDS =      105416.8672
            RECHARGE =         889.9025              RECHARGE =         889.9025

           TOTAL OUT =    30435212.0000             TOTAL OUT =    30435212.0000

            IN - OUT =         -26.0000              IN - OUT =         -26.0000

 PERCENT DISCREPANCY =          -0.00     PERCENT DISCREPANCY =          -0.00






          TIME SUMMARY AT END OF TIME STEP   1 IN STRESS PERIOD    1
                    SECONDS     MINUTES      HOURS       DAYS        YEARS
                    -----------------------------------------------------------
   TIME STEP LENGTH  86400.      1440.0      24.000      1.0000     2.73785E-03
 STRESS PERIOD TIME  86400.      1440.0      24.000      1.0000     2.73785E-03
         TOTAL TIME  86400.      1440.0      24.000      1.0000     2.73785E-03
1

 Run end date and time (yyyy/mm/dd hh:mm:ss): 2019/11/12 14:29:24
 Elapsed run time:  5 Minutes, 32.620 Seconds

