

--------------------------------------------------------------------------------

Command: run Delft3D-FLOW
   Starting Delft3D-FLOW computation ...
--------------------------------------------------------------------------------
       Deltares, FLOW2D3D Version 6.01.08.s33352.3872, Jun 27 2014, 11:33:33
       flow2d3d.dll entry Flow2D3D::Run
--------------------------------------------------------------------------------

Part I    - Initialisation Time Dep. Data module...    
            runid : tacloban
Part II   - Creating intermediate files...             
Part III  - Initialisation of the Execution module...  
Part IV   - Reading complete MD-file...                     
Part V    - Initialisation & checking input...              
Part VI   - Initialisation & checking second part...        
Part VII  - Initialisation output...                        
Part VIII - Start Simulation...                             
 
  Time to finish   0s,    0.0% completed, time steps left  480
  Time to finish   2m 15s,    0.2% completed, time steps left  479
  Time to finish   2m 10s,    0.4% completed, time steps left  478
  Time to finish   2m  6s,    0.6% completed, time steps left  477
  Time to finish   2m  6s,    0.8% completed, time steps left  476
  Time to finish   2m  4s,    1.0% completed, time steps left  475
  Time to finish   2m  4s,    1.2% completed, time steps left  474
  Time to finish   2m  3s,    1.5% completed, time steps left  473
  Time to finish   2m  3s,    1.7% completed, time steps left  472
  Time to finish   2m  3s,    1.9% completed, time steps left  471
  Time to finish   2m  3s,    2.1% completed, time steps left  470
  Time to finish   2m  3s,    2.3% completed, time steps left  469
  Time to finish   2m  4s,    2.5% completed, time steps left  468
  Time to finish   2m  3s,    2.7% completed, time steps left  467
  Time to finish   2m  4s,    2.9% completed, time steps left  466
  Time to finish   2m  4s,    3.1% completed, time steps left  465
  Time to finish   2m  5s,    3.3% completed, time steps left  464
  Time to finish   2m  5s,    3.5% completed, time steps left  463
  Time to finish   2m  5s,    3.8% completed, time steps left  462
  Time to finish   2m  5s,    4.0% completed, time steps left  461
  Time to finish   2m  4s,    4.2% completed, time steps left  460
  Time to finish   2m  4s,    4.4% completed, time steps left  459
  Time to finish   2m  4s,    4.6% completed, time steps left  458
  Time to finish   2m  3s,    4.8% completed, time steps left  457
  Time to finish   2m  3s,    5.0% completed, time steps left  456
  Time to finish   2m  3s,    5.2% completed, time steps left  455
  Time to finish   2m  3s,    5.4% completed, time steps left  454
  Time to finish   2m  3s,    5.6% completed, time steps left  453
  Time to finish   2m  2s,    5.8% completed, time steps left  452
  Time to finish   2m  2s,    6.0% completed, time steps left  451
  Time to finish   2m  2s,    6.2% completed, time steps left  450
  Time to finish   2m  2s,    6.5% completed, time steps left  449
  Time to finish   2m  2s,    6.7% completed, time steps left  448
  Time to finish   2m  2s,    6.9% completed, time steps left  447
  Time to finish   2m  2s,    7.1% completed, time steps left  446
  Time to finish   2m  2s,    7.3% completed, time steps left  445
  Time to finish   2m  1s,    7.5% completed, time steps left  444
  Time to finish   2m  1s,    7.7% completed, time steps left  443
  Time to finish   2m  1s,    7.9% completed, time steps left  442
  Time to finish   2m  1s,    8.1% completed, time steps left  441
  Time to finish   2m  1s,    8.3% completed, time steps left  440
  Time to finish   2m  1s,    8.5% completed, time steps left  439
  Time to finish   2m  1s,    8.8% completed, time steps left  438
  Time to finish   2m  1s,    9.0% completed, time steps left  437
  Time to finish   2m  0s,    9.2% completed, time steps left  436
  Time to finish   2m  0s,    9.4% completed, time steps left  435
  Time to finish   2m  0s,    9.6% completed, time steps left  434
  Time to finish   2m  0s,    9.8% completed, time steps left  433
  Time to finish   2m  0s,   10.0% completed, time steps left  432
  Time to finish   2m  0s,   10.2% completed, time steps left  431
  Time to finish   2m  0s,   10.4% completed, time steps left  430
  Time to finish   2m  0s,   10.6% completed, time steps left  429
  Time to finish   2m  0s,   10.8% completed, time steps left  428
  Time to finish   2m  0s,   11.0% completed, time steps left  427
  Time to finish   2m  0s,   11.2% completed, time steps left  426
  Time to finish   2m  0s,   11.5% completed, time steps left  425
  Time to finish   2m  0s,   11.7% completed, time steps left  424
  Time to finish   2m  0s,   11.9% completed, time steps left  423
  Time to finish   2m  0s,   12.1% completed, time steps left  422
  Time to finish   2m  0s,   12.3% completed, time steps left  421
  Time to finish   2m  0s,   12.5% completed, time steps left  420
  Time to finish   2m  0s,   12.7% completed, time steps left  419
  Time to finish   2m  0s,   12.9% completed, time steps left  418
  Time to finish   2m  0s,   13.1% completed, time steps left  417
  Time to finish   2m  0s,   13.3% completed, time steps left  416
  Time to finish   2m  0s,   13.5% completed, time steps left  415
  Time to finish   2m  0s,   13.8% completed, time steps left  414
  Time to finish   2m  0s,   14.0% completed, time steps left  413
  Time to finish   2m  1s,   14.2% completed, time steps left  412
  Time to finish   2m  0s,   14.4% completed, time steps left  411
  Time to finish   2m  1s,   14.6% completed, time steps left  410
  Time to finish   2m  1s,   14.8% completed, time steps left  409
  Time to finish   2m  1s,   15.0% completed, time steps left  408
  Time to finish   2m  2s,   15.2% completed, time steps left  407
  Time to finish   2m  2s,   15.4% completed, time steps left  406
  Time to finish   2m  1s,   15.6% completed, time steps left  405
  Time to finish   2m  1s,   15.8% completed, time steps left  404
  Time to finish   2m  2s,   16.0% completed, time steps left  403
  Time to finish   2m  2s,   16.2% completed, time steps left  402
  Time to finish   2m  2s,   16.5% completed, time steps left  401
  Time to finish   2m  2s,   16.7% completed, time steps left  400
  Time to finish   2m  2s,   16.9% completed, time steps left  399
  Time to finish   2m  2s,   17.1% completed, time steps left  398
  Time to finish   2m  2s,   17.3% completed, time steps left  397
  Time to finish   2m  3s,   17.5% completed, time steps left  396
  Time to finish   2m  3s,   17.7% completed, time steps left  395
  Time to finish   2m  3s,   17.9% completed, time steps left  394
  Time to finish   2m  4s,   18.1% completed, time steps left  393
  Time to finish   2m  4s,   18.3% completed, time steps left  392
  Time to finish   2m  5s,   18.5% completed, time steps left  391
  Time to finish   2m  5s,   18.8% completed, time steps left  390
  Time to finish   2m  5s,   19.0% completed, time steps left  389
  Time to finish   2m  6s,   19.2% completed, time steps left  388
  Time to finish   2m  6s,   19.4% completed, time steps left  387
  Time to finish   2m  7s,   19.6% completed, time steps left  386
  Time to finish   2m  7s,   19.8% completed, time steps left  385
  Time to finish   2m  7s,   20.0% completed, time steps left  384
  Time to finish   2m  7s,   20.2% completed, time steps left  383
  Time to finish   2m  7s,   20.4% completed, time steps left  382
  Time to finish   2m  7s,   20.6% completed, time steps left  381
  Time to finish   2m  8s,   20.8% completed, time steps left  380
  Time to finish   2m  8s,   21.0% completed, time steps left  379
  Time to finish   2m  8s,   21.2% completed, time steps left  378
  Time to finish   2m  8s,   21.5% completed, time steps left  377
  Time to finish   2m  8s,   21.7% completed, time steps left  376
  Time to finish   2m  7s,   21.9% completed, time steps left  375
  Time to finish   2m  7s,   22.1% completed, time steps left  374
  Time to finish   2m  7s,   22.3% completed, time steps left  373
  Time to finish   2m  7s,   22.5% completed, time steps left  372
  Time to finish   2m  6s,   22.7% completed, time steps left  371
  Time to finish   2m  6s,   22.9% completed, time steps left  370
  Time to finish   2m  6s,   23.1% completed, time steps left  369
  Time to finish   2m  6s,   23.3% completed, time steps left  368
  Time to finish   2m  6s,   23.5% completed, time steps left  367
  Time to finish   2m  6s,   23.8% completed, time steps left  366
  Time to finish   2m  6s,   24.0% completed, time steps left  365
  Time to finish   2m  6s,   24.2% completed, time steps left  364
  Time to finish   2m  6s,   24.4% completed, time steps left  363
  Time to finish   2m  6s,   24.6% completed, time steps left  362
  Time to finish   2m  6s,   24.8% completed, time steps left  361
  Time to finish   2m  6s,   25.0% completed, time steps left  360
  Time to finish   2m  6s,   25.2% completed, time steps left  359
  Time to finish   2m  6s,   25.4% completed, time steps left  358
  Time to finish   2m  6s,   25.6% completed, time steps left  357
  Time to finish   2m  6s,   25.8% completed, time steps left  356
  Time to finish   2m  6s,   26.0% completed, time steps left  355
  Time to finish   2m  6s,   26.2% completed, time steps left  354
  Time to finish   2m  6s,   26.5% completed, time steps left  353
  Time to finish   2m  6s,   26.7% completed, time steps left  352
  Time to finish   2m  6s,   26.9% completed, time steps left  351
  Time to finish   2m  5s,   27.1% completed, time steps left  350
  Time to finish   2m  5s,   27.3% completed, time steps left  349
  Time to finish   2m  6s,   27.5% completed, time steps left  348
  Time to finish   2m  6s,   27.7% completed, time steps left  347
  Time to finish   2m  7s,   27.9% completed, time steps left  346
  Time to finish   2m  7s,   28.1% completed, time steps left  345
  Time to finish   2m  7s,   28.3% completed, time steps left  344
  Time to finish   2m  7s,   28.5% completed, time steps left  343
  Time to finish   2m  7s,   28.7% completed, time steps left  342
  Time to finish   2m  6s,   29.0% completed, time steps left  341
  Time to finish   2m  7s,   29.2% completed, time steps left  340
  Time to finish   2m  6s,   29.4% completed, time steps left  339
  Time to finish   2m  6s,   29.6% completed, time steps left  338
  Time to finish   2m  6s,   29.8% completed, time steps left  337
  Time to finish   2m  6s,   30.0% completed, time steps left  336
  Time to finish   2m  6s,   30.2% completed, time steps left  335
  Time to finish   2m  5s,   30.4% completed, time steps left  334
  Time to finish   2m  5s,   30.6% completed, time steps left  333
  Time to finish   2m  5s,   30.8% completed, time steps left  332
  Time to finish   2m  4s,   31.0% completed, time steps left  331
  Time to finish   2m  4s,   31.2% completed, time steps left  330
  Time to finish   2m  4s,   31.5% completed, time steps left  329
  Time to finish   2m  4s,   31.7% completed, time steps left  328
  Time to finish   2m  4s,   31.9% completed, time steps left  327
  Time to finish   2m  4s,   32.1% completed, time steps left  326
  Time to finish   2m  4s,   32.3% completed, time steps left  325
  Time to finish   2m  4s,   32.5% completed, time steps left  324
  Time to finish   2m  3s,   32.7% completed, time steps left  323
  Time to finish   2m  3s,   32.9% completed, time steps left  322
  Time to finish   2m  3s,   33.1% completed, time steps left  321
  Time to finish   2m  3s,   33.3% completed, time steps left  320
  Time to finish   2m  3s,   33.5% completed, time steps left  319
  Time to finish   2m  2s,   33.8% completed, time steps left  318
  Time to finish   2m  2s,   34.0% completed, time steps left  317
  Time to finish   2m  2s,   34.2% completed, time steps left  316
  Time to finish   2m  2s,   34.4% completed, time steps left  315
  Time to finish   2m  2s,   34.6% completed, time steps left  314
  Time to finish   2m  2s,   34.8% completed, time steps left  313
  Time to finish   2m  2s,   35.0% completed, time steps left  312
  Time to finish   2m  2s,   35.2% completed, time steps left  311
  Time to finish   2m  2s,   35.4% completed, time steps left  310
  Time to finish   2m  2s,   35.6% completed, time steps left  309
  Time to finish   2m  2s,   35.8% completed, time steps left  308
  Time to finish   2m  1s,   36.0% completed, time steps left  307
  Time to finish   2m  1s,   36.2% completed, time steps left  306
  Time to finish   2m  1s,   36.5% completed, time steps left  305
  Time to finish   2m  1s,   36.7% completed, time steps left  304
  Time to finish   2m  1s,   36.9% completed, time steps left  303
  Time to finish   2m  1s,   37.1% completed, time steps left  302
  Time to finish   2m  0s,   37.3% completed, time steps left  301
  Time to finish   2m  0s,   37.5% completed, time steps left  300
  Time to finish   2m  0s,   37.7% completed, time steps left  299
  Time to finish   2m  0s,   37.9% completed, time steps left  298
  Time to finish   2m  0s,   38.1% completed, time steps left  297
  Time to finish   2m  0s,   38.3% completed, time steps left  296
  Time to finish   2m  0s,   38.5% completed, time steps left  295
  Time to finish   1m 59s,   38.8% completed, time steps left  294
  Time to finish   1m 59s,   39.0% completed, time steps left  293
  Time to finish   1m 59s,   39.2% completed, time steps left  292
  Time to finish   1m 59s,   39.4% completed, time steps left  291
  Time to finish   1m 58s,   39.6% completed, time steps left  290
  Time to finish   1m 58s,   39.8% completed, time steps left  289
  Time to finish   1m 58s,   40.0% completed, time steps left  288
  Time to finish   1m 58s,   40.2% completed, time steps left  287
  Time to finish   1m 57s,   40.4% completed, time steps left  286
  Time to finish   1m 57s,   40.6% completed, time steps left  285
  Time to finish   1m 57s,   40.8% completed, time steps left  284
  Time to finish   1m 57s,   41.0% completed, time steps left  283
  Time to finish   1m 56s,   41.2% completed, time steps left  282
  Time to finish   1m 56s,   41.5% completed, time steps left  281
  Time to finish   1m 56s,   41.7% completed, time steps left  280
  Time to finish   1m 56s,   41.9% completed, time steps left  279
  Time to finish   1m 56s,   42.1% completed, time steps left  278
  Time to finish   1m 55s,   42.3% completed, time steps left  277
  Time to finish   1m 55s,   42.5% completed, time steps left  276
  Time to finish   1m 55s,   42.7% completed, time steps left  275
  Time to finish   1m 54s,   42.9% completed, time steps left  274
  Time to finish   1m 54s,   43.1% completed, time steps left  273
  Time to finish   1m 54s,   43.3% completed, time steps left  272
  Time to finish   1m 53s,   43.5% completed, time steps left  271
  Time to finish   1m 53s,   43.8% completed, time steps left  270
  Time to finish   1m 53s,   44.0% completed, time steps left  269
  Time to finish   1m 52s,   44.2% completed, time steps left  268
  Time to finish   1m 52s,   44.4% completed, time steps left  267
  Time to finish   1m 52s,   44.6% completed, time steps left  266
  Time to finish   1m 52s,   44.8% completed, time steps left  265
  Time to finish   1m 51s,   45.0% completed, time steps left  264
  Time to finish   1m 51s,   45.2% completed, time steps left  263
  Time to finish   1m 51s,   45.4% completed, time steps left  262
  Time to finish   1m 51s,   45.6% completed, time steps left  261
  Time to finish   1m 51s,   45.8% completed, time steps left  260
  Time to finish   1m 51s,   46.0% completed, time steps left  259
  Time to finish   1m 50s,   46.2% completed, time steps left  258
  Time to finish   1m 50s,   46.5% completed, time steps left  257
  Time to finish   1m 50s,   46.7% completed, time steps left  256
  Time to finish   1m 49s,   46.9% completed, time steps left  255
  Time to finish   1m 49s,   47.1% completed, time steps left  254
  Time to finish   1m 49s,   47.3% completed, time steps left  253
  Time to finish   1m 49s,   47.5% completed, time steps left  252
  Time to finish   1m 48s,   47.7% completed, time steps left  251
  Time to finish   1m 48s,   47.9% completed, time steps left  250
  Time to finish   1m 48s,   48.1% completed, time steps left  249
  Time to finish   1m 47s,   48.3% completed, time steps left  248
  Time to finish   1m 47s,   48.5% completed, time steps left  247
  Time to finish   1m 47s,   48.8% completed, time steps left  246
  Time to finish   1m 46s,   49.0% completed, time steps left  245
  Time to finish   1m 46s,   49.2% completed, time steps left  244
  Time to finish   1m 46s,   49.4% completed, time steps left  243
  Time to finish   1m 46s,   49.6% completed, time steps left  242
  Time to finish   1m 46s,   49.8% completed, time steps left  241
  Time to finish   1m 45s,   50.0% completed, time steps left  240
  Time to finish   1m 45s,   50.2% completed, time steps left  239
  Time to finish   1m 45s,   50.4% completed, time steps left  238
  Time to finish   1m 44s,   50.6% completed, time steps left  237
  Time to finish   1m 44s,   50.8% completed, time steps left  236
  Time to finish   1m 44s,   51.0% completed, time steps left  235
  Time to finish   1m 44s,   51.2% completed, time steps left  234
  Time to finish   1m 43s,   51.5% completed, time steps left  233
  Time to finish   1m 43s,   51.7% completed, time steps left  232
  Time to finish   1m 42s,   51.9% completed, time steps left  231
  Time to finish   1m 42s,   52.1% completed, time steps left  230
  Time to finish   1m 42s,   52.3% completed, time steps left  229
  Time to finish   1m 42s,   52.5% completed, time steps left  228
  Time to finish   1m 41s,   52.7% completed, time steps left  227
  Time to finish   1m 41s,   52.9% completed, time steps left  226
  Time to finish   1m 41s,   53.1% completed, time steps left  225
  Time to finish   1m 41s,   53.3% completed, time steps left  224
  Time to finish   1m 40s,   53.5% completed, time steps left  223
  Time to finish   1m 40s,   53.8% completed, time steps left  222
  Time to finish   1m 40s,   54.0% completed, time steps left  221
  Time to finish   1m 40s,   54.2% completed, time steps left  220
  Time to finish   1m 39s,   54.4% completed, time steps left  219
  Time to finish   1m 39s,   54.6% completed, time steps left  218
  Time to finish   1m 39s,   54.8% completed, time steps left  217
  Time to finish   1m 38s,   55.0% completed, time steps left  216
  Time to finish   1m 38s,   55.2% completed, time steps left  215
  Time to finish   1m 38s,   55.4% completed, time steps left  214
  Time to finish   1m 38s,   55.6% completed, time steps left  213
  Time to finish   1m 37s,   55.8% completed, time steps left  212
  Time to finish   1m 37s,   56.0% completed, time steps left  211
  Time to finish   1m 37s,   56.2% completed, time steps left  210
  Time to finish   1m 36s,   56.5% completed, time steps left  209
  Time to finish   1m 36s,   56.7% completed, time steps left  208
  Time to finish   1m 36s,   56.9% completed, time steps left  207
  Time to finish   1m 35s,   57.1% completed, time steps left  206
  Time to finish   1m 35s,   57.3% completed, time steps left  205
  Time to finish   1m 35s,   57.5% completed, time steps left  204
  Time to finish   1m 34s,   57.7% completed, time steps left  203
  Time to finish   1m 34s,   57.9% completed, time steps left  202
  Time to finish   1m 34s,   58.1% completed, time steps left  201
  Time to finish   1m 33s,   58.3% completed, time steps left  200
  Time to finish   1m 33s,   58.5% completed, time steps left  199
  Time to finish   1m 33s,   58.8% completed, time steps left  198
  Time to finish   1m 32s,   59.0% completed, time steps left  197
  Time to finish   1m 32s,   59.2% completed, time steps left  196
  Time to finish   1m 32s,   59.4% completed, time steps left  195
  Time to finish   1m 31s,   59.6% completed, time steps left  194
  Time to finish   1m 31s,   59.8% completed, time steps left  193
  Time to finish   1m 31s,   60.0% completed, time steps left  192
  Time to finish   1m 30s,   60.2% completed, time steps left  191
  Time to finish   1m 30s,   60.4% completed, time steps left  190
  Time to finish   1m 30s,   60.6% completed, time steps left  189
  Time to finish   1m 29s,   60.8% completed, time steps left  188
  Time to finish   1m 29s,   61.0% completed, time steps left  187
  Time to finish   1m 29s,   61.3% completed, time steps left  186
  Time to finish   1m 28s,   61.5% completed, time steps left  185
  Time to finish   1m 28s,   61.7% completed, time steps left  184
  Time to finish   1m 28s,   61.9% completed, time steps left  183
  Time to finish   1m 27s,   62.1% completed, time steps left  182
  Time to finish   1m 27s,   62.3% completed, time steps left  181
  Time to finish   1m 27s,   62.5% completed, time steps left  180
  Time to finish   1m 26s,   62.7% completed, time steps left  179
  Time to finish   1m 26s,   62.9% completed, time steps left  178
  Time to finish   1m 25s,   63.1% completed, time steps left  177
  Time to finish   1m 25s,   63.3% completed, time steps left  176
  Time to finish   1m 25s,   63.5% completed, time steps left  175
  Time to finish   1m 24s,   63.7% completed, time steps left  174
  Time to finish   1m 24s,   64.0% completed, time steps left  173
  Time to finish   1m 23s,   64.2% completed, time steps left  172
  Time to finish   1m 23s,   64.4% completed, time steps left  171
  Time to finish   1m 22s,   64.6% completed, time steps left  170
  Time to finish   1m 22s,   64.8% completed, time steps left  169
  Time to finish   1m 22s,   65.0% completed, time steps left  168
  Time to finish   1m 21s,   65.2% completed, time steps left  167
  Time to finish   1m 21s,   65.4% completed, time steps left  166
  Time to finish   1m 20s,   65.6% completed, time steps left  165
  Time to finish   1m 20s,   65.8% completed, time steps left  164
  Time to finish   1m 19s,   66.0% completed, time steps left  163
  Time to finish   1m 19s,   66.2% completed, time steps left  162
  Time to finish   1m 19s,   66.5% completed, time steps left  161
  Time to finish   1m 18s,   66.7% completed, time steps left  160
  Time to finish   1m 18s,   66.9% completed, time steps left  159
  Time to finish   1m 17s,   67.1% completed, time steps left  158
  Time to finish   1m 17s,   67.3% completed, time steps left  157
  Time to finish   1m 16s,   67.5% completed, time steps left  156
  Time to finish   1m 16s,   67.7% completed, time steps left  155
  Time to finish   1m 15s,   67.9% completed, time steps left  154
  Time to finish   1m 15s,   68.1% completed, time steps left  153
  Time to finish   1m 15s,   68.3% completed, time steps left  152
  Time to finish   1m 14s,   68.5% completed, time steps left  151
  Time to finish   1m 14s,   68.8% completed, time steps left  150
  Time to finish   1m 13s,   69.0% completed, time steps left  149
  Time to finish   1m 13s,   69.2% completed, time steps left  148
  Time to finish   1m 12s,   69.4% completed, time steps left  147
  Time to finish   1m 12s,   69.6% completed, time steps left  146
  Time to finish   1m 11s,   69.8% completed, time steps left  145
  Time to finish   1m 11s,   70.0% completed, time steps left  144
  Time to finish   1m 10s,   70.2% completed, time steps left  143
  Time to finish   1m 10s,   70.4% completed, time steps left  142
  Time to finish   1m 10s,   70.6% completed, time steps left  141
  Time to finish   1m  9s,   70.8% completed, time steps left  140
  Time to finish   1m  9s,   71.0% completed, time steps left  139
  Time to finish   1m  8s,   71.2% completed, time steps left  138
  Time to finish   1m  8s,   71.5% completed, time steps left  137
  Time to finish   1m  7s,   71.7% completed, time steps left  136
  Time to finish   1m  7s,   71.9% completed, time steps left  135
  Time to finish   1m  6s,   72.1% completed, time steps left  134
  Time to finish   1m  6s,   72.3% completed, time steps left  133
  Time to finish   1m  5s,   72.5% completed, time steps left  132
  Time to finish   1m  5s,   72.7% completed, time steps left  131
  Time to finish   1m  5s,   72.9% completed, time steps left  130
  Time to finish   1m  4s,   73.1% completed, time steps left  129
  Time to finish   1m  4s,   73.3% completed, time steps left  128
  Time to finish   1m  3s,   73.5% completed, time steps left  127
  Time to finish   1m  3s,   73.8% completed, time steps left  126
  Time to finish   1m  2s,   74.0% completed, time steps left  125
  Time to finish   1m  2s,   74.2% completed, time steps left  124
  Time to finish   1m  1s,   74.4% completed, time steps left  123
  Time to finish   1m  1s,   74.6% completed, time steps left  122
  Time to finish  60s,   74.8% completed, time steps left  121
  Time to finish  60s,   75.0% completed, time steps left  120
  Time to finish  60s,   75.2% completed, time steps left  119
  Time to finish  59s,   75.4% completed, time steps left  118
  Time to finish  59s,   75.6% completed, time steps left  117
  Time to finish  58s,   75.8% completed, time steps left  116
  Time to finish  58s,   76.0% completed, time steps left  115
  Time to finish  57s,   76.2% completed, time steps left  114
  Time to finish  57s,   76.5% completed, time steps left  113
  Time to finish  56s,   76.7% completed, time steps left  112
  Time to finish  56s,   76.9% completed, time steps left  111
  Time to finish  55s,   77.1% completed, time steps left  110
  Time to finish  55s,   77.3% completed, time steps left  109
  Time to finish  54s,   77.5% completed, time steps left  108
  Time to finish  54s,   77.7% completed, time steps left  107
  Time to finish  53s,   77.9% completed, time steps left  106
  Time to finish  53s,   78.1% completed, time steps left  105
  Time to finish  52s,   78.3% completed, time steps left  104
  Time to finish  52s,   78.5% completed, time steps left  103
  Time to finish  51s,   78.8% completed, time steps left  102
  Time to finish  51s,   79.0% completed, time steps left  101
  Time to finish  51s,   79.2% completed, time steps left  100
  Time to finish  50s,   79.4% completed, time steps left  99
  Time to finish  50s,   79.6% completed, time steps left  98
  Time to finish  49s,   79.8% completed, time steps left  97
  Time to finish  49s,   80.0% completed, time steps left  96
  Time to finish  48s,   80.2% completed, time steps left  95
  Time to finish  48s,   80.4% completed, time steps left  94
  Time to finish  47s,   80.6% completed, time steps left  93
  Time to finish  47s,   80.8% completed, time steps left  92
  Time to finish  46s,   81.0% completed, time steps left  91
  Time to finish  46s,   81.2% completed, time steps left  90
  Time to finish  45s,   81.5% completed, time steps left  89
  Time to finish  45s,   81.7% completed, time steps left  88
  Time to finish  44s,   81.9% completed, time steps left  87
  Time to finish  44s,   82.1% completed, time steps left  86
  Time to finish  43s,   82.3% completed, time steps left  85
  Time to finish  43s,   82.5% completed, time steps left  84
  Time to finish  43s,   82.7% completed, time steps left  83
  Time to finish  42s,   82.9% completed, time steps left  82
  Time to finish  42s,   83.1% completed, time steps left  81
  Time to finish  41s,   83.3% completed, time steps left  80
  Time to finish  41s,   83.5% completed, time steps left  79
  Time to finish  40s,   83.8% completed, time steps left  78
  Time to finish  40s,   84.0% completed, time steps left  77
  Time to finish  39s,   84.2% completed, time steps left  76
  Time to finish  39s,   84.4% completed, time steps left  75
  Time to finish  38s,   84.6% completed, time steps left  74
  Time to finish  38s,   84.8% completed, time steps left  73
  Time to finish  37s,   85.0% completed, time steps left  72
  Time to finish  37s,   85.2% completed, time steps left  71
  Time to finish  36s,   85.4% completed, time steps left  70
  Time to finish  36s,   85.6% completed, time steps left  69
  Time to finish  35s,   85.8% completed, time steps left  68
  Time to finish  35s,   86.0% completed, time steps left  67
  Time to finish  34s,   86.2% completed, time steps left  66
  Time to finish  34s,   86.5% completed, time steps left  65
  Time to finish  33s,   86.7% completed, time steps left  64
  Time to finish  33s,   86.9% completed, time steps left  63
  Time to finish  32s,   87.1% completed, time steps left  62
  Time to finish  32s,   87.3% completed, time steps left  61
  Time to finish  31s,   87.5% completed, time steps left  60
  Time to finish  31s,   87.7% completed, time steps left  59
  Time to finish  31s,   87.9% completed, time steps left  58
  Time to finish  30s,   88.1% completed, time steps left  57
  Time to finish  30s,   88.3% completed, time steps left  56
  Time to finish  29s,   88.5% completed, time steps left  55
  Time to finish  29s,   88.8% completed, time steps left  54
  Time to finish  28s,   89.0% completed, time steps left  53
  Time to finish  28s,   89.2% completed, time steps left  52
  Time to finish  27s,   89.4% completed, time steps left  51
  Time to finish  27s,   89.6% completed, time steps left  50
  Time to finish  26s,   89.8% completed, time steps left  49
  Time to finish  26s,   90.0% completed, time steps left  48
  Time to finish  25s,   90.2% completed, time steps left  47
  Time to finish  25s,   90.4% completed, time steps left  46
  Time to finish  24s,   90.6% completed, time steps left  45
  Time to finish  24s,   90.8% completed, time steps left  44
  Time to finish  23s,   91.0% completed, time steps left  43
  Time to finish  23s,   91.2% completed, time steps left  42
  Time to finish  22s,   91.5% completed, time steps left  41
  Time to finish  22s,   91.7% completed, time steps left  40
  Time to finish  21s,   91.9% completed, time steps left  39
  Time to finish  21s,   92.1% completed, time steps left  38
  Time to finish  20s,   92.3% completed, time steps left  37
  Time to finish  19s,   92.5% completed, time steps left  36
  Time to finish  19s,   92.7% completed, time steps left  35
  Time to finish  18s,   92.9% completed, time steps left  34
  Time to finish  18s,   93.1% completed, time steps left  33
  Time to finish  17s,   93.3% completed, time steps left  32
  Time to finish  17s,   93.5% completed, time steps left  31
  Time to finish  16s,   93.8% completed, time steps left  30
  Time to finish  16s,   94.0% completed, time steps left  29
  Time to finish  15s,   94.2% completed, time steps left  28
  Time to finish  15s,   94.4% completed, time steps left  27
  Time to finish  14s,   94.6% completed, time steps left  26
  Time to finish  14s,   94.8% completed, time steps left  25
  Time to finish  13s,   95.0% completed, time steps left  24
  Time to finish  13s,   95.2% completed, time steps left  23
  Time to finish  12s,   95.4% completed, time steps left  22
  Time to finish  12s,   95.6% completed, time steps left  21
  Time to finish  11s,   95.8% completed, time steps left  20
  Time to finish  10s,   96.0% completed, time steps left  19
  Time to finish  10s,   96.2% completed, time steps left  18
  Time to finish   9s,   96.5% completed, time steps left  17
  Time to finish   9s,   96.7% completed, time steps left  16
  Time to finish   8s,   96.9% completed, time steps left  15
  Time to finish   8s,   97.1% completed, time steps left  14
  Time to finish   7s,   97.3% completed, time steps left  13
  Time to finish   7s,   97.5% completed, time steps left  12
  Time to finish   6s,   97.7% completed, time steps left  11
  Time to finish   6s,   97.9% completed, time steps left  10
  Time to finish   5s,   98.1% completed, time steps left  9
  Time to finish   4s,   98.3% completed, time steps left  8
  Time to finish   4s,   98.5% completed, time steps left  7
  Time to finish   3s,   98.8% completed, time steps left  6
  Time to finish   3s,   99.0% completed, time steps left  5
  Time to finish   2s,   99.2% completed, time steps left  4
  Time to finish   2s,   99.4% completed, time steps left  3
  Time to finish   1s,   99.6% completed, time steps left  2
  Time to finish   1s,   99.8% completed, time steps left  1
 
 
------------------------------------------------------------------------------
  FINISHED    Delft3D-FLOW
              runid      : tacloban
              date, time : 2015-11-27, 13:40:48
*** WARNING Smoothing time is    50.0% of simulation time
*** WARNING Latitude of your model is 0 degrees, model located at equator
*** WARNING File will not be created - Inconsistent comm. file times
*** WARNING Minimum layer thickness (0.1*Dryflc) is too large for the vertical
*** WARNING Velocity change too high >       5.00 m/s (per 0.5 DT) after 176 ti
***         mesteps in the following points:
*** WARNING Velocity change too high >       5.00 m/s (per 0.5 DT) after 211 ti
***         mesteps in the following points:
*** WARNING Velocity change too high >       5.00 m/s (per 0.5 DT) after 247 ti
***         mesteps in the following points:
*** WARNING Velocity change too high >       5.00 m/s (per 0.5 DT) after 285 ti
***         mesteps in the following points:
*** WARNING Velocity change too high >       5.00 m/s (per 0.5 DT) after 285 ti
***         mesteps in the following points:
*** WARNING Velocity change too high >       5.00 m/s (per 0.5 DT) after 361 ti
***         mesteps in the following points:
  *** Too many errors and warnings to write to screen !! 
    0 errors and   102 warnings
returning to main program from domain tacloban
------------------------------------------------------------------------------
D_Hydro [48.000168] <anonymous> >> d_hydro shutting down normally
