*
* Deltares, Delft3D-QUICKIN Version 4.18.00.14050M, Dec 13 2010, 09:37:43
* File creation date: 2011-09-21, 02:26:40
*
L001
       5   2
   6.6779826E+02   8.0189558E+02
   8.4799416E+02   8.0275776E+02
   8.4799416E+02   7.8378977E+02
   6.6693608E+02   7.8982504E+02
   6.6779826E+02   8.0189558E+02
