*
* Deltares, Delft3D-RGFGRID Version 4.17.03.7767, Jul 10 2009, 10:12:13
* File creation date: 2009-11-04, 14:07:29
*
Coordinate System = Cartesian
      57     111
 0 0 0
 ETA=    1   1.00000000000000000E+00   1.60000000000000000E+01   3.10000000000000000E+01   4.60000000000000000E+01   6.10000000000000000E+01
             7.60000000000000000E+01   9.10000000000000000E+01   1.06000000000000000E+02   1.21000000000000000E+02   1.36000000000000000E+02
             1.51000000000000000E+02   1.66000000000000000E+02   1.81000000000000000E+02   1.96000000000000000E+02   2.11000000000000000E+02
             2.26000000000000000E+02   2.41000000000000000E+02   2.56000000000000000E+02   2.71000000000000000E+02   2.86000000000000000E+02
             3.01000000000000000E+02   3.16000000000000000E+02   3.31000000000000000E+02   3.46000000000000000E+02   3.61000000000000000E+02
             3.76000000000000000E+02   3.91000000000000000E+02   4.06000000000000000E+02   4.21000000000000000E+02   4.36000000000000000E+02
             4.51000000000000000E+02   4.66000000000000000E+02   4.81000000000000000E+02   4.96000000000000000E+02   5.11000000000000000E+02
             5.26000000000000000E+02   5.41000000000000000E+02   5.56000000000000000E+02   5.71000000000000000E+02   5.86000000000000000E+02
             6.01000000000000000E+02   6.16000000000000000E+02   6.31000000000000000E+02   6.46000000000000000E+02   6.61000000000000000E+02
             6.76000000000000000E+02   6.91000000000000000E+02   7.06000000000000000E+02   7.21000000000000000E+02   7.36000000000000000E+02
             7.51000000000000000E+02   7.66000000000000000E+02   7.81000000000000000E+02   7.96000000000000000E+02   8.11000000000000000E+02
             8.26000000000000000E+02   8.41000000000000000E+02
 ETA=    2   1.00000000000000000E+00   1.60000000000000000E+01   3.10000000000000000E+01   4.60000000000000000E+01   6.10000000000000000E+01
             7.60000000000000000E+01   9.10000000000000000E+01   1.06000000000000000E+02   1.21000000000000000E+02   1.36000000000000000E+02
             1.51000000000000000E+02   1.66000000000000000E+02   1.81000000000000000E+02   1.96000000000000000E+02   2.11000000000000000E+02
             2.26000000000000000E+02   2.41000000000000000E+02   2.56000000000000000E+02   2.71000000000000000E+02   2.86000000000000000E+02
             3.01000000000000000E+02   3.16000000000000000E+02   3.31000000000000000E+02   3.46000000000000000E+02   3.61000000000000000E+02
             3.76000000000000000E+02   3.91000000000000000E+02   4.06000000000000000E+02   4.21000000000000000E+02   4.36000000000000000E+02
             4.51000000000000000E+02   4.66000000000000000E+02   4.81000000000000000E+02   4.96000000000000000E+02   5.11000000000000000E+02
             5.26000000000000000E+02   5.41000000000000000E+02   5.56000000000000000E+02   5.71000000000000000E+02   5.86000000000000000E+02
             6.01000000000000000E+02   6.16000000000000000E+02   6.31000000000000000E+02   6.46000000000000000E+02   6.61000000000000000E+02
             6.76000000000000000E+02   6.91000000000000000E+02   7.06000000000000000E+02   7.21000000000000000E+02   7.36000000000000000E+02
             7.51000000000000000E+02   7.66000000000000000E+02   7.81000000000000000E+02   7.96000000000000000E+02   8.11000000000000000E+02
             8.26000000000000000E+02   8.41000000000000000E+02
 ETA=    3   1.00000000000000000E+00   1.60000000000000000E+01   3.10000000000000000E+01   4.60000000000000000E+01   6.10000000000000000E+01
             7.60000000000000000E+01   9.10000000000000000E+01   1.06000000000000000E+02   1.21000000000000000E+02   1.36000000000000000E+02
             1.51000000000000000E+02   1.66000000000000000E+02   1.81000000000000000E+02   1.96000000000000000E+02   2.11000000000000000E+02
             2.26000000000000000E+02   2.41000000000000000E+02   2.56000000000000000E+02   2.71000000000000000E+02   2.86000000000000000E+02
             3.01000000000000000E+02   3.16000000000000000E+02   3.31000000000000000E+02   3.46000000000000000E+02   3.61000000000000000E+02
             3.76000000000000000E+02   3.91000000000000000E+02   4.06000000000000000E+02   4.21000000000000000E+02   4.36000000000000000E+02
             4.51000000000000000E+02   4.66000000000000000E+02   4.81000000000000000E+02   4.96000000000000000E+02   5.11000000000000000E+02
             5.26000000000000000E+02   5.41000000000000000E+02   5.56000000000000000E+02   5.71000000000000000E+02   5.86000000000000000E+02
             6.01000000000000000E+02   6.16000000000000000E+02   6.31000000000000000E+02   6.46000000000000000E+02   6.61000000000000000E+02
             6.76000000000000000E+02   6.91000000000000000E+02   7.06000000000000000E+02   7.21000000000000000E+02   7.36000000000000000E+02
             7.51000000000000000E+02   7.66000000000000000E+02   7.81000000000000000E+02   7.96000000000000000E+02   8.11000000000000000E+02
             8.26000000000000000E+02   8.41000000000000000E+02
 ETA=    4   1.00000000000000000E+00   1.60000000000000000E+01   3.10000000000000000E+01   4.60000000000000000E+01   6.10000000000000000E+01
             7.60000000000000000E+01   9.10000000000000000E+01   1.06000000000000000E+02   1.21000000000000000E+02   1.36000000000000000E+02
             1.51000000000000000E+02   1.66000000000000000E+02   1.81000000000000000E+02   1.96000000000000000E+02   2.11000000000000000E+02
             2.26000000000000000E+02   2.41000000000000000E+02   2.56000000000000000E+02   2.71000000000000000E+02   2.86000000000000000E+02
             3.01000000000000000E+02   3.16000000000000000E+02   3.31000000000000000E+02   3.46000000000000000E+02   3.61000000000000000E+02
             3.76000000000000000E+02   3.91000000000000000E+02   4.06000000000000000E+02   4.21000000000000000E+02   4.36000000000000000E+02
             4.51000000000000000E+02   4.66000000000000000E+02   4.81000000000000000E+02   4.96000000000000000E+02   5.11000000000000000E+02
             5.26000000000000000E+02   5.41000000000000000E+02   5.56000000000000000E+02   5.71000000000000000E+02   5.86000000000000000E+02
             6.01000000000000000E+02   6.16000000000000000E+02   6.31000000000000000E+02   6.46000000000000000E+02   6.61000000000000000E+02
             6.76000000000000000E+02   6.91000000000000000E+02   7.06000000000000000E+02   7.21000000000000000E+02   7.36000000000000000E+02
             7.51000000000000000E+02   7.66000000000000000E+02   7.81000000000000000E+02   7.96000000000000000E+02   8.11000000000000000E+02
             8.26000000000000000E+02   8.41000000000000000E+02
 ETA=    5   1.00000000000000000E+00   1.60000000000000000E+01   3.10000000000000000E+01   4.60000000000000000E+01   6.10000000000000000E+01
             7.60000000000000000E+01   9.10000000000000000E+01   1.06000000000000000E+02   1.21000000000000000E+02   1.36000000000000000E+02
             1.51000000000000000E+02   1.66000000000000000E+02   1.81000000000000000E+02   1.96000000000000000E+02   2.11000000000000000E+02
             2.26000000000000000E+02   2.41000000000000000E+02   2.56000000000000000E+02   2.71000000000000000E+02   2.86000000000000000E+02
             3.01000000000000000E+02   3.16000000000000000E+02   3.31000000000000000E+02   3.46000000000000000E+02   3.61000000000000000E+02
             3.76000000000000000E+02   3.91000000000000000E+02   4.06000000000000000E+02   4.21000000000000000E+02   4.36000000000000000E+02
             4.51000000000000000E+02   4.66000000000000000E+02   4.81000000000000000E+02   4.96000000000000000E+02   5.11000000000000000E+02
             5.26000000000000000E+02   5.41000000000000000E+02   5.56000000000000000E+02   5.71000000000000000E+02   5.86000000000000000E+02
             6.01000000000000000E+02   6.16000000000000000E+02   6.31000000000000000E+02   6.46000000000000000E+02   6.61000000000000000E+02
             6.76000000000000000E+02   6.91000000000000000E+02   7.06000000000000000E+02   7.21000000000000000E+02   7.36000000000000000E+02
             7.51000000000000000E+02   7.66000000000000000E+02   7.81000000000000000E+02   7.96000000000000000E+02   8.11000000000000000E+02
             8.26000000000000000E+02   8.41000000000000000E+02
 ETA=    6   1.00000000000000000E+00   1.60000000000000000E+01   3.10000000000000000E+01   4.60000000000000000E+01   6.10000000000000000E+01
             7.60000000000000000E+01   9.10000000000000000E+01   1.06000000000000000E+02   1.21000000000000000E+02   1.36000000000000000E+02
             1.51000000000000000E+02   1.66000000000000000E+02   1.81000000000000000E+02   1.96000000000000000E+02   2.11000000000000000E+02
             2.26000000000000000E+02   2.41000000000000000E+02   2.56000000000000000E+02   2.71000000000000000E+02   2.86000000000000000E+02
             3.01000000000000000E+02   3.16000000000000000E+02   3.31000000000000000E+02   3.46000000000000000E+02   3.61000000000000000E+02
             3.76000000000000000E+02   3.91000000000000000E+02   4.06000000000000000E+02   4.21000000000000000E+02   4.36000000000000000E+02
             4.51000000000000000E+02   4.66000000000000000E+02   4.81000000000000000E+02   4.96000000000000000E+02   5.11000000000000000E+02
             5.26000000000000000E+02   5.41000000000000000E+02   5.56000000000000000E+02   5.71000000000000000E+02   5.86000000000000000E+02
             6.01000000000000000E+02   6.16000000000000000E+02   6.31000000000000000E+02   6.46000000000000000E+02   6.61000000000000000E+02
             6.76000000000000000E+02   6.91000000000000000E+02   7.06000000000000000E+02   7.21000000000000000E+02   7.36000000000000000E+02
             7.51000000000000000E+02   7.66000000000000000E+02   7.81000000000000000E+02   7.96000000000000000E+02   8.11000000000000000E+02
             8.26000000000000000E+02   8.41000000000000000E+02
 ETA=    7   1.00000000000000000E+00   1.60000000000000000E+01   3.10000000000000000E+01   4.60000000000000000E+01   6.10000000000000000E+01
             7.60000000000000000E+01   9.10000000000000000E+01   1.06000000000000000E+02   1.21000000000000000E+02   1.36000000000000000E+02
             1.51000000000000000E+02   1.66000000000000000E+02   1.81000000000000000E+02   1.96000000000000000E+02   2.11000000000000000E+02
             2.26000000000000000E+02   2.41000000000000000E+02   2.56000000000000000E+02   2.71000000000000000E+02   2.86000000000000000E+02
             3.01000000000000000E+02   3.16000000000000000E+02   3.31000000000000000E+02   3.46000000000000000E+02   3.61000000000000000E+02
             3.76000000000000000E+02   3.91000000000000000E+02   4.06000000000000000E+02   4.21000000000000000E+02   4.36000000000000000E+02
             4.51000000000000000E+02   4.66000000000000000E+02   4.81000000000000000E+02   4.96000000000000000E+02   5.11000000000000000E+02
             5.26000000000000000E+02   5.41000000000000000E+02   5.56000000000000000E+02   5.71000000000000000E+02   5.86000000000000000E+02
             6.01000000000000000E+02   6.16000000000000000E+02   6.31000000000000000E+02   6.46000000000000000E+02   6.61000000000000000E+02
             6.76000000000000000E+02   6.91000000000000000E+02   7.06000000000000000E+02   7.21000000000000000E+02   7.36000000000000000E+02
             7.51000000000000000E+02   7.66000000000000000E+02   7.81000000000000000E+02   7.96000000000000000E+02   8.11000000000000000E+02
             8.26000000000000000E+02   8.41000000000000000E+02
 ETA=    8   1.00000000000000000E+00   1.60000000000000000E+01   3.10000000000000000E+01   4.60000000000000000E+01   6.10000000000000000E+01
             7.60000000000000000E+01   9.10000000000000000E+01   1.06000000000000000E+02   1.21000000000000000E+02   1.36000000000000000E+02
             1.51000000000000000E+02   1.66000000000000000E+02   1.81000000000000000E+02   1.96000000000000000E+02   2.11000000000000000E+02
             2.26000000000000000E+02   2.41000000000000000E+02   2.56000000000000000E+02   2.71000000000000000E+02   2.86000000000000000E+02
             3.01000000000000000E+02   3.16000000000000000E+02   3.31000000000000000E+02   3.46000000000000000E+02   3.61000000000000000E+02
             3.76000000000000000E+02   3.91000000000000000E+02   4.06000000000000000E+02   4.21000000000000000E+02   4.36000000000000000E+02
             4.51000000000000000E+02   4.66000000000000000E+02   4.81000000000000000E+02   4.96000000000000000E+02   5.11000000000000000E+02
             5.26000000000000000E+02   5.41000000000000000E+02   5.56000000000000000E+02   5.71000000000000000E+02   5.86000000000000000E+02
             6.01000000000000000E+02   6.16000000000000000E+02   6.31000000000000000E+02   6.46000000000000000E+02   6.61000000000000000E+02
             6.76000000000000000E+02   6.91000000000000000E+02   7.06000000000000000E+02   7.21000000000000000E+02   7.36000000000000000E+02
             7.51000000000000000E+02   7.66000000000000000E+02   7.81000000000000000E+02   7.96000000000000000E+02   8.11000000000000000E+02
             8.26000000000000000E+02   8.41000000000000000E+02
 ETA=    9   1.00000000000000000E+00   1.60000000000000000E+01   3.10000000000000000E+01   4.60000000000000000E+01   6.10000000000000000E+01
             7.60000000000000000E+01   9.10000000000000000E+01   1.06000000000000000E+02   1.21000000000000000E+02   1.36000000000000000E+02
             1.51000000000000000E+02   1.66000000000000000E+02   1.81000000000000000E+02   1.96000000000000000E+02   2.11000000000000000E+02
             2.26000000000000000E+02   2.41000000000000000E+02   2.56000000000000000E+02   2.71000000000000000E+02   2.86000000000000000E+02
             3.01000000000000000E+02   3.16000000000000000E+02   3.31000000000000000E+02   3.46000000000000000E+02   3.61000000000000000E+02
             3.76000000000000000E+02   3.91000000000000000E+02   4.06000000000000000E+02   4.21000000000000000E+02   4.36000000000000000E+02
             4.51000000000000000E+02   4.66000000000000000E+02   4.81000000000000000E+02   4.96000000000000000E+02   5.11000000000000000E+02
             5.26000000000000000E+02   5.41000000000000000E+02   5.56000000000000000E+02   5.71000000000000000E+02   5.86000000000000000E+02
             6.01000000000000000E+02   6.16000000000000000E+02   6.31000000000000000E+02   6.46000000000000000E+02   6.61000000000000000E+02
             6.76000000000000000E+02   6.91000000000000000E+02   7.06000000000000000E+02   7.21000000000000000E+02   7.36000000000000000E+02
             7.51000000000000000E+02   7.66000000000000000E+02   7.81000000000000000E+02   7.96000000000000000E+02   8.11000000000000000E+02
             8.26000000000000000E+02   8.41000000000000000E+02
 ETA=   10   1.00000000000000000E+00   1.60000000000000000E+01   3.10000000000000000E+01   4.60000000000000000E+01   6.10000000000000000E+01
             7.60000000000000000E+01   9.10000000000000000E+01   1.06000000000000000E+02   1.21000000000000000E+02   1.36000000000000000E+02
             1.51000000000000000E+02   1.66000000000000000E+02   1.81000000000000000E+02   1.96000000000000000E+02   2.11000000000000000E+02
             2.26000000000000000E+02   2.41000000000000000E+02   2.56000000000000000E+02   2.71000000000000000E+02   2.86000000000000000E+02
             3.01000000000000000E+02   3.16000000000000000E+02   3.31000000000000000E+02   3.46000000000000000E+02   3.61000000000000000E+02
             3.76000000000000000E+02   3.91000000000000000E+02   4.06000000000000000E+02   4.21000000000000000E+02   4.36000000000000000E+02
             4.51000000000000000E+02   4.66000000000000000E+02   4.81000000000000000E+02   4.96000000000000000E+02   5.11000000000000000E+02
             5.26000000000000000E+02   5.41000000000000000E+02   5.56000000000000000E+02   5.71000000000000000E+02   5.86000000000000000E+02
             6.01000000000000000E+02   6.16000000000000000E+02   6.31000000000000000E+02   6.46000000000000000E+02   6.61000000000000000E+02
             6.76000000000000000E+02   6.91000000000000000E+02   7.06000000000000000E+02   7.21000000000000000E+02   7.36000000000000000E+02
             7.51000000000000000E+02   7.66000000000000000E+02   7.81000000000000000E+02   7.96000000000000000E+02   8.11000000000000000E+02
             8.26000000000000000E+02   8.41000000000000000E+02
 ETA=   11   1.00000000000000000E+00   1.60000000000000000E+01   3.10000000000000000E+01   4.60000000000000000E+01   6.10000000000000000E+01
             7.60000000000000000E+01   9.10000000000000000E+01   1.06000000000000000E+02   1.21000000000000000E+02   1.36000000000000000E+02
             1.51000000000000000E+02   1.66000000000000000E+02   1.81000000000000000E+02   1.96000000000000000E+02   2.11000000000000000E+02
             2.26000000000000000E+02   2.41000000000000000E+02   2.56000000000000000E+02   2.71000000000000000E+02   2.86000000000000000E+02
             3.01000000000000000E+02   3.16000000000000000E+02   3.31000000000000000E+02   3.46000000000000000E+02   3.61000000000000000E+02
             3.76000000000000000E+02   3.91000000000000000E+02   4.06000000000000000E+02   4.21000000000000000E+02   4.36000000000000000E+02
             4.51000000000000000E+02   4.66000000000000000E+02   4.81000000000000000E+02   4.96000000000000000E+02   5.11000000000000000E+02
             5.26000000000000000E+02   5.41000000000000000E+02   5.56000000000000000E+02   5.71000000000000000E+02   5.86000000000000000E+02
             6.01000000000000000E+02   6.16000000000000000E+02   6.31000000000000000E+02   6.46000000000000000E+02   6.61000000000000000E+02
             6.76000000000000000E+02   6.91000000000000000E+02   7.06000000000000000E+02   7.21000000000000000E+02   7.36000000000000000E+02
             7.51000000000000000E+02   7.66000000000000000E+02   7.81000000000000000E+02   7.96000000000000000E+02   8.11000000000000000E+02
             8.26000000000000000E+02   8.41000000000000000E+02
 ETA=   12   1.00000000000000000E+00   1.60000000000000000E+01   3.10000000000000000E+01   4.60000000000000000E+01   6.10000000000000000E+01
             7.60000000000000000E+01   9.10000000000000000E+01   1.06000000000000000E+02   1.21000000000000000E+02   1.36000000000000000E+02
             1.51000000000000000E+02   1.66000000000000000E+02   1.81000000000000000E+02   1.96000000000000000E+02   2.11000000000000000E+02
             2.26000000000000000E+02   2.41000000000000000E+02   2.56000000000000000E+02   2.71000000000000000E+02   2.86000000000000000E+02
             3.01000000000000000E+02   3.16000000000000000E+02   3.31000000000000000E+02   3.46000000000000000E+02   3.61000000000000000E+02
             3.76000000000000000E+02   3.91000000000000000E+02   4.06000000000000000E+02   4.21000000000000000E+02   4.36000000000000000E+02
             4.51000000000000000E+02   4.66000000000000000E+02   4.81000000000000000E+02   4.96000000000000000E+02   5.11000000000000000E+02
             5.26000000000000000E+02   5.41000000000000000E+02   5.56000000000000000E+02   5.71000000000000000E+02   5.86000000000000000E+02
             6.01000000000000000E+02   6.16000000000000000E+02   6.31000000000000000E+02   6.46000000000000000E+02   6.61000000000000000E+02
             6.76000000000000000E+02   6.91000000000000000E+02   7.06000000000000000E+02   7.21000000000000000E+02   7.36000000000000000E+02
             7.51000000000000000E+02   7.66000000000000000E+02   7.81000000000000000E+02   7.96000000000000000E+02   8.11000000000000000E+02
             8.26000000000000000E+02   8.41000000000000000E+02
 ETA=   13   1.00000000000000000E+00   1.60000000000000000E+01   3.10000000000000000E+01   4.60000000000000000E+01   6.10000000000000000E+01
             7.60000000000000000E+01   9.10000000000000000E+01   1.06000000000000000E+02   1.21000000000000000E+02   1.36000000000000000E+02
             1.51000000000000000E+02   1.66000000000000000E+02   1.81000000000000000E+02   1.96000000000000000E+02   2.11000000000000000E+02
             2.26000000000000000E+02   2.41000000000000000E+02   2.56000000000000000E+02   2.71000000000000000E+02   2.86000000000000000E+02
             3.01000000000000000E+02   3.16000000000000000E+02   3.31000000000000000E+02   3.46000000000000000E+02   3.61000000000000000E+02
             3.76000000000000000E+02   3.91000000000000000E+02   4.06000000000000000E+02   4.21000000000000000E+02   4.36000000000000000E+02
             4.51000000000000000E+02   4.66000000000000000E+02   4.81000000000000000E+02   4.96000000000000000E+02   5.11000000000000000E+02
             5.26000000000000000E+02   5.41000000000000000E+02   5.56000000000000000E+02   5.71000000000000000E+02   5.86000000000000000E+02
             6.01000000000000000E+02   6.16000000000000000E+02   6.31000000000000000E+02   6.46000000000000000E+02   6.61000000000000000E+02
             6.76000000000000000E+02   6.91000000000000000E+02   7.06000000000000000E+02   7.21000000000000000E+02   7.36000000000000000E+02
             7.51000000000000000E+02   7.66000000000000000E+02   7.81000000000000000E+02   7.96000000000000000E+02   8.11000000000000000E+02
             8.26000000000000000E+02   8.41000000000000000E+02
 ETA=   14   1.00000000000000000E+00   1.60000000000000000E+01   3.10000000000000000E+01   4.60000000000000000E+01   6.10000000000000000E+01
             7.60000000000000000E+01   9.10000000000000000E+01   1.06000000000000000E+02   1.21000000000000000E+02   1.36000000000000000E+02
             1.51000000000000000E+02   1.66000000000000000E+02   1.81000000000000000E+02   1.96000000000000000E+02   2.11000000000000000E+02
             2.26000000000000000E+02   2.41000000000000000E+02   2.56000000000000000E+02   2.71000000000000000E+02   2.86000000000000000E+02
             3.01000000000000000E+02   3.16000000000000000E+02   3.31000000000000000E+02   3.46000000000000000E+02   3.61000000000000000E+02
             3.76000000000000000E+02   3.91000000000000000E+02   4.06000000000000000E+02   4.21000000000000000E+02   4.36000000000000000E+02
             4.51000000000000000E+02   4.66000000000000000E+02   4.81000000000000000E+02   4.96000000000000000E+02   5.11000000000000000E+02
             5.26000000000000000E+02   5.41000000000000000E+02   5.56000000000000000E+02   5.71000000000000000E+02   5.86000000000000000E+02
             6.01000000000000000E+02   6.16000000000000000E+02   6.31000000000000000E+02   6.46000000000000000E+02   6.61000000000000000E+02
             6.76000000000000000E+02   6.91000000000000000E+02   7.06000000000000000E+02   7.21000000000000000E+02   7.36000000000000000E+02
             7.51000000000000000E+02   7.66000000000000000E+02   7.81000000000000000E+02   7.96000000000000000E+02   8.11000000000000000E+02
             8.26000000000000000E+02   8.41000000000000000E+02
 ETA=   15   1.00000000000000000E+00   1.60000000000000000E+01   3.10000000000000000E+01   4.60000000000000000E+01   6.10000000000000000E+01
             7.60000000000000000E+01   9.10000000000000000E+01   1.06000000000000000E+02   1.21000000000000000E+02   1.36000000000000000E+02
             1.51000000000000000E+02   1.66000000000000000E+02   1.81000000000000000E+02   1.96000000000000000E+02   2.11000000000000000E+02
             2.26000000000000000E+02   2.41000000000000000E+02   2.56000000000000000E+02   2.71000000000000000E+02   2.86000000000000000E+02
             3.01000000000000000E+02   3.16000000000000000E+02   3.31000000000000000E+02   3.46000000000000000E+02   3.61000000000000000E+02
             3.76000000000000000E+02   3.91000000000000000E+02   4.06000000000000000E+02   4.21000000000000000E+02   4.36000000000000000E+02
             4.51000000000000000E+02   4.66000000000000000E+02   4.81000000000000000E+02   4.96000000000000000E+02   5.11000000000000000E+02
             5.26000000000000000E+02   5.41000000000000000E+02   5.56000000000000000E+02   5.71000000000000000E+02   5.86000000000000000E+02
             6.01000000000000000E+02   6.16000000000000000E+02   6.31000000000000000E+02   6.46000000000000000E+02   6.61000000000000000E+02
             6.76000000000000000E+02   6.91000000000000000E+02   7.06000000000000000E+02   7.21000000000000000E+02   7.36000000000000000E+02
             7.51000000000000000E+02   7.66000000000000000E+02   7.81000000000000000E+02   7.96000000000000000E+02   8.11000000000000000E+02
             8.26000000000000000E+02   8.41000000000000000E+02
 ETA=   16   1.00000000000000000E+00   1.60000000000000000E+01   3.10000000000000000E+01   4.60000000000000000E+01   6.10000000000000000E+01
             7.60000000000000000E+01   9.10000000000000000E+01   1.06000000000000000E+02   1.21000000000000000E+02   1.36000000000000000E+02
             1.51000000000000000E+02   1.66000000000000000E+02   1.81000000000000000E+02   1.96000000000000000E+02   2.11000000000000000E+02
             2.26000000000000000E+02   2.41000000000000000E+02   2.56000000000000000E+02   2.71000000000000000E+02   2.86000000000000000E+02
             3.01000000000000000E+02   3.16000000000000000E+02   3.31000000000000000E+02   3.46000000000000000E+02   3.61000000000000000E+02
             3.76000000000000000E+02   3.91000000000000000E+02   4.06000000000000000E+02   4.21000000000000000E+02   4.36000000000000000E+02
             4.51000000000000000E+02   4.66000000000000000E+02   4.81000000000000000E+02   4.96000000000000000E+02   5.11000000000000000E+02
             5.26000000000000000E+02   5.41000000000000000E+02   5.56000000000000000E+02   5.71000000000000000E+02   5.86000000000000000E+02
             6.01000000000000000E+02   6.16000000000000000E+02   6.31000000000000000E+02   6.46000000000000000E+02   6.61000000000000000E+02
             6.76000000000000000E+02   6.91000000000000000E+02   7.06000000000000000E+02   7.21000000000000000E+02   7.36000000000000000E+02
             7.51000000000000000E+02   7.66000000000000000E+02   7.81000000000000000E+02   7.96000000000000000E+02   8.11000000000000000E+02
             8.26000000000000000E+02   8.41000000000000000E+02
 ETA=   17   1.00000000000000000E+00   1.60000000000000000E+01   3.10000000000000000E+01   4.60000000000000000E+01   6.10000000000000000E+01
             7.60000000000000000E+01   9.10000000000000000E+01   1.06000000000000000E+02   1.21000000000000000E+02   1.36000000000000000E+02
             1.51000000000000000E+02   1.66000000000000000E+02   1.81000000000000000E+02   1.96000000000000000E+02   2.11000000000000000E+02
             2.26000000000000000E+02   2.41000000000000000E+02   2.56000000000000000E+02   2.71000000000000000E+02   2.86000000000000000E+02
             3.01000000000000000E+02   3.16000000000000000E+02   3.31000000000000000E+02   3.46000000000000000E+02   3.61000000000000000E+02
             3.76000000000000000E+02   3.91000000000000000E+02   4.06000000000000000E+02   4.21000000000000000E+02   4.36000000000000000E+02
             4.51000000000000000E+02   4.66000000000000000E+02   4.81000000000000000E+02   4.96000000000000000E+02   5.11000000000000000E+02
             5.26000000000000000E+02   5.41000000000000000E+02   5.56000000000000000E+02   5.71000000000000000E+02   5.86000000000000000E+02
             6.01000000000000000E+02   6.16000000000000000E+02   6.31000000000000000E+02   6.46000000000000000E+02   6.61000000000000000E+02
             6.76000000000000000E+02   6.91000000000000000E+02   7.06000000000000000E+02   7.21000000000000000E+02   7.36000000000000000E+02
             7.51000000000000000E+02   7.66000000000000000E+02   7.81000000000000000E+02   7.96000000000000000E+02   8.11000000000000000E+02
             8.26000000000000000E+02   8.41000000000000000E+02
 ETA=   18   1.00000000000000000E+00   1.60000000000000000E+01   3.10000000000000000E+01   4.60000000000000000E+01   6.10000000000000000E+01
             7.60000000000000000E+01   9.10000000000000000E+01   1.06000000000000000E+02   1.21000000000000000E+02   1.36000000000000000E+02
             1.51000000000000000E+02   1.66000000000000000E+02   1.81000000000000000E+02   1.96000000000000000E+02   2.11000000000000000E+02
             2.26000000000000000E+02   2.41000000000000000E+02   2.56000000000000000E+02   2.71000000000000000E+02   2.86000000000000000E+02
             3.01000000000000000E+02   3.16000000000000000E+02   3.31000000000000000E+02   3.46000000000000000E+02   3.61000000000000000E+02
             3.76000000000000000E+02   3.91000000000000000E+02   4.06000000000000000E+02   4.21000000000000000E+02   4.36000000000000000E+02
             4.51000000000000000E+02   4.66000000000000000E+02   4.81000000000000000E+02   4.96000000000000000E+02   5.11000000000000000E+02
             5.26000000000000000E+02   5.41000000000000000E+02   5.56000000000000000E+02   5.71000000000000000E+02   5.86000000000000000E+02
             6.01000000000000000E+02   6.16000000000000000E+02   6.31000000000000000E+02   6.46000000000000000E+02   6.61000000000000000E+02
             6.76000000000000000E+02   6.91000000000000000E+02   7.06000000000000000E+02   7.21000000000000000E+02   7.36000000000000000E+02
             7.51000000000000000E+02   7.66000000000000000E+02   7.81000000000000000E+02   7.96000000000000000E+02   8.11000000000000000E+02
             8.26000000000000000E+02   8.41000000000000000E+02
 ETA=   19   1.00000000000000000E+00   1.60000000000000000E+01   3.10000000000000000E+01   4.60000000000000000E+01   6.10000000000000000E+01
             7.60000000000000000E+01   9.10000000000000000E+01   1.06000000000000000E+02   1.21000000000000000E+02   1.36000000000000000E+02
             1.51000000000000000E+02   1.66000000000000000E+02   1.81000000000000000E+02   1.96000000000000000E+02   2.11000000000000000E+02
             2.26000000000000000E+02   2.41000000000000000E+02   2.56000000000000000E+02   2.71000000000000000E+02   2.86000000000000000E+02
             3.01000000000000000E+02   3.16000000000000000E+02   3.31000000000000000E+02   3.46000000000000000E+02   3.61000000000000000E+02
             3.76000000000000000E+02   3.91000000000000000E+02   4.06000000000000000E+02   4.21000000000000000E+02   4.36000000000000000E+02
             4.51000000000000000E+02   4.66000000000000000E+02   4.81000000000000000E+02   4.96000000000000000E+02   5.11000000000000000E+02
             5.26000000000000000E+02   5.41000000000000000E+02   5.56000000000000000E+02   5.71000000000000000E+02   5.86000000000000000E+02
             6.01000000000000000E+02   6.16000000000000000E+02   6.31000000000000000E+02   6.46000000000000000E+02   6.61000000000000000E+02
             6.76000000000000000E+02   6.91000000000000000E+02   7.06000000000000000E+02   7.21000000000000000E+02   7.36000000000000000E+02
             7.51000000000000000E+02   7.66000000000000000E+02   7.81000000000000000E+02   7.96000000000000000E+02   8.11000000000000000E+02
             8.26000000000000000E+02   8.41000000000000000E+02
 ETA=   20   1.00000000000000000E+00   1.60000000000000000E+01   3.10000000000000000E+01   4.60000000000000000E+01   6.10000000000000000E+01
             7.60000000000000000E+01   9.10000000000000000E+01   1.06000000000000000E+02   1.21000000000000000E+02   1.36000000000000000E+02
             1.51000000000000000E+02   1.66000000000000000E+02   1.81000000000000000E+02   1.96000000000000000E+02   2.11000000000000000E+02
             2.26000000000000000E+02   2.41000000000000000E+02   2.56000000000000000E+02   2.71000000000000000E+02   2.86000000000000000E+02
             3.01000000000000000E+02   3.16000000000000000E+02   3.31000000000000000E+02   3.46000000000000000E+02   3.61000000000000000E+02
             3.76000000000000000E+02   3.91000000000000000E+02   4.06000000000000000E+02   4.21000000000000000E+02   4.36000000000000000E+02
             4.51000000000000000E+02   4.66000000000000000E+02   4.81000000000000000E+02   4.96000000000000000E+02   5.11000000000000000E+02
             5.26000000000000000E+02   5.41000000000000000E+02   5.56000000000000000E+02   5.71000000000000000E+02   5.86000000000000000E+02
             6.01000000000000000E+02   6.16000000000000000E+02   6.31000000000000000E+02   6.46000000000000000E+02   6.61000000000000000E+02
             6.76000000000000000E+02   6.91000000000000000E+02   7.06000000000000000E+02   7.21000000000000000E+02   7.36000000000000000E+02
             7.51000000000000000E+02   7.66000000000000000E+02   7.81000000000000000E+02   7.96000000000000000E+02   8.11000000000000000E+02
             8.26000000000000000E+02   8.41000000000000000E+02
 ETA=   21   1.00000000000000000E+00   1.60000000000000000E+01   3.10000000000000000E+01   4.60000000000000000E+01   6.10000000000000000E+01
             7.60000000000000000E+01   9.10000000000000000E+01   1.06000000000000000E+02   1.21000000000000000E+02   1.36000000000000000E+02
             1.51000000000000000E+02   1.66000000000000000E+02   1.81000000000000000E+02   1.96000000000000000E+02   2.11000000000000000E+02
             2.26000000000000000E+02   2.41000000000000000E+02   2.56000000000000000E+02   2.71000000000000000E+02   2.86000000000000000E+02
             3.01000000000000000E+02   3.16000000000000000E+02   3.31000000000000000E+02   3.46000000000000000E+02   3.61000000000000000E+02
             3.76000000000000000E+02   3.91000000000000000E+02   4.06000000000000000E+02   4.21000000000000000E+02   4.36000000000000000E+02
             4.51000000000000000E+02   4.66000000000000000E+02   4.81000000000000000E+02   4.96000000000000000E+02   5.11000000000000000E+02
             5.26000000000000000E+02   5.41000000000000000E+02   5.56000000000000000E+02   5.71000000000000000E+02   5.86000000000000000E+02
             6.01000000000000000E+02   6.16000000000000000E+02   6.31000000000000000E+02   6.46000000000000000E+02   6.61000000000000000E+02
             6.76000000000000000E+02   6.91000000000000000E+02   7.06000000000000000E+02   7.21000000000000000E+02   7.36000000000000000E+02
             7.51000000000000000E+02   7.66000000000000000E+02   7.81000000000000000E+02   7.96000000000000000E+02   8.11000000000000000E+02
             8.26000000000000000E+02   8.41000000000000000E+02
 ETA=   22   1.00000000000000000E+00   1.60000000000000000E+01   3.10000000000000000E+01   4.60000000000000000E+01   6.10000000000000000E+01
             7.60000000000000000E+01   9.10000000000000000E+01   1.06000000000000000E+02   1.21000000000000000E+02   1.36000000000000000E+02
             1.51000000000000000E+02   1.66000000000000000E+02   1.81000000000000000E+02   1.96000000000000000E+02   2.11000000000000000E+02
             2.26000000000000000E+02   2.41000000000000000E+02   2.56000000000000000E+02   2.71000000000000000E+02   2.86000000000000000E+02
             3.01000000000000000E+02   3.16000000000000000E+02   3.31000000000000000E+02   3.46000000000000000E+02   3.61000000000000000E+02
             3.76000000000000000E+02   3.91000000000000000E+02   4.06000000000000000E+02   4.21000000000000000E+02   4.36000000000000000E+02
             4.51000000000000000E+02   4.66000000000000000E+02   4.81000000000000000E+02   4.96000000000000000E+02   5.11000000000000000E+02
             5.26000000000000000E+02   5.41000000000000000E+02   5.56000000000000000E+02   5.71000000000000000E+02   5.86000000000000000E+02
             6.01000000000000000E+02   6.16000000000000000E+02   6.31000000000000000E+02   6.46000000000000000E+02   6.61000000000000000E+02
             6.76000000000000000E+02   6.91000000000000000E+02   7.06000000000000000E+02   7.21000000000000000E+02   7.36000000000000000E+02
             7.51000000000000000E+02   7.66000000000000000E+02   7.81000000000000000E+02   7.96000000000000000E+02   8.11000000000000000E+02
             8.26000000000000000E+02   8.41000000000000000E+02
 ETA=   23   1.00000000000000000E+00   1.60000000000000000E+01   3.10000000000000000E+01   4.60000000000000000E+01   6.10000000000000000E+01
             7.60000000000000000E+01   9.10000000000000000E+01   1.06000000000000000E+02   1.21000000000000000E+02   1.36000000000000000E+02
             1.51000000000000000E+02   1.66000000000000000E+02   1.81000000000000000E+02   1.96000000000000000E+02   2.11000000000000000E+02
             2.26000000000000000E+02   2.41000000000000000E+02   2.56000000000000000E+02   2.71000000000000000E+02   2.86000000000000000E+02
             3.01000000000000000E+02   3.16000000000000000E+02   3.31000000000000000E+02   3.46000000000000000E+02   3.61000000000000000E+02
             3.76000000000000000E+02   3.91000000000000000E+02   4.06000000000000000E+02   4.21000000000000000E+02   4.36000000000000000E+02
             4.51000000000000000E+02   4.66000000000000000E+02   4.81000000000000000E+02   4.96000000000000000E+02   5.11000000000000000E+02
             5.26000000000000000E+02   5.41000000000000000E+02   5.56000000000000000E+02   5.71000000000000000E+02   5.86000000000000000E+02
             6.01000000000000000E+02   6.16000000000000000E+02   6.31000000000000000E+02   6.46000000000000000E+02   6.61000000000000000E+02
             6.76000000000000000E+02   6.91000000000000000E+02   7.06000000000000000E+02   7.21000000000000000E+02   7.36000000000000000E+02
             7.51000000000000000E+02   7.66000000000000000E+02   7.81000000000000000E+02   7.96000000000000000E+02   8.11000000000000000E+02
             8.26000000000000000E+02   8.41000000000000000E+02
 ETA=   24   1.00000000000000000E+00   1.60000000000000000E+01   3.10000000000000000E+01   4.60000000000000000E+01   6.10000000000000000E+01
             7.60000000000000000E+01   9.10000000000000000E+01   1.06000000000000000E+02   1.21000000000000000E+02   1.36000000000000000E+02
             1.51000000000000000E+02   1.66000000000000000E+02   1.81000000000000000E+02   1.96000000000000000E+02   2.11000000000000000E+02
             2.26000000000000000E+02   2.41000000000000000E+02   2.56000000000000000E+02   2.71000000000000000E+02   2.86000000000000000E+02
             3.01000000000000000E+02   3.16000000000000000E+02   3.31000000000000000E+02   3.46000000000000000E+02   3.61000000000000000E+02
             3.76000000000000000E+02   3.91000000000000000E+02   4.06000000000000000E+02   4.21000000000000000E+02   4.36000000000000000E+02
             4.51000000000000000E+02   4.66000000000000000E+02   4.81000000000000000E+02   4.96000000000000000E+02   5.11000000000000000E+02
             5.26000000000000000E+02   5.41000000000000000E+02   5.56000000000000000E+02   5.71000000000000000E+02   5.86000000000000000E+02
             6.01000000000000000E+02   6.16000000000000000E+02   6.31000000000000000E+02   6.46000000000000000E+02   6.61000000000000000E+02
             6.76000000000000000E+02   6.91000000000000000E+02   7.06000000000000000E+02   7.21000000000000000E+02   7.36000000000000000E+02
             7.51000000000000000E+02   7.66000000000000000E+02   7.81000000000000000E+02   7.96000000000000000E+02   8.11000000000000000E+02
             8.26000000000000000E+02   8.41000000000000000E+02
 ETA=   25   1.00000000000000000E+00   1.60000000000000000E+01   3.10000000000000000E+01   4.60000000000000000E+01   6.10000000000000000E+01
             7.60000000000000000E+01   9.10000000000000000E+01   1.06000000000000000E+02   1.21000000000000000E+02   1.36000000000000000E+02
             1.51000000000000000E+02   1.66000000000000000E+02   1.81000000000000000E+02   1.96000000000000000E+02   2.11000000000000000E+02
             2.26000000000000000E+02   2.41000000000000000E+02   2.56000000000000000E+02   2.71000000000000000E+02   2.86000000000000000E+02
             3.01000000000000000E+02   3.16000000000000000E+02   3.31000000000000000E+02   3.46000000000000000E+02   3.61000000000000000E+02
             3.76000000000000000E+02   3.91000000000000000E+02   4.06000000000000000E+02   4.21000000000000000E+02   4.36000000000000000E+02
             4.51000000000000000E+02   4.66000000000000000E+02   4.81000000000000000E+02   4.96000000000000000E+02   5.11000000000000000E+02
             5.26000000000000000E+02   5.41000000000000000E+02   5.56000000000000000E+02   5.71000000000000000E+02   5.86000000000000000E+02
             6.01000000000000000E+02   6.16000000000000000E+02   6.31000000000000000E+02   6.46000000000000000E+02   6.61000000000000000E+02
             6.76000000000000000E+02   6.91000000000000000E+02   7.06000000000000000E+02   7.21000000000000000E+02   7.36000000000000000E+02
             7.51000000000000000E+02   7.66000000000000000E+02   7.81000000000000000E+02   7.96000000000000000E+02   8.11000000000000000E+02
             8.26000000000000000E+02   8.41000000000000000E+02
 ETA=   26   1.00000000000000000E+00   1.60000000000000000E+01   3.10000000000000000E+01   4.60000000000000000E+01   6.10000000000000000E+01
             7.60000000000000000E+01   9.10000000000000000E+01   1.06000000000000000E+02   1.21000000000000000E+02   1.36000000000000000E+02
             1.51000000000000000E+02   1.66000000000000000E+02   1.81000000000000000E+02   1.96000000000000000E+02   2.11000000000000000E+02
             2.26000000000000000E+02   2.41000000000000000E+02   2.56000000000000000E+02   2.71000000000000000E+02   2.86000000000000000E+02
             3.01000000000000000E+02   3.16000000000000000E+02   3.31000000000000000E+02   3.46000000000000000E+02   3.61000000000000000E+02
             3.76000000000000000E+02   3.91000000000000000E+02   4.06000000000000000E+02   4.21000000000000000E+02   4.36000000000000000E+02
             4.51000000000000000E+02   4.66000000000000000E+02   4.81000000000000000E+02   4.96000000000000000E+02   5.11000000000000000E+02
             5.26000000000000000E+02   5.41000000000000000E+02   5.56000000000000000E+02   5.71000000000000000E+02   5.86000000000000000E+02
             6.01000000000000000E+02   6.16000000000000000E+02   6.31000000000000000E+02   6.46000000000000000E+02   6.61000000000000000E+02
             6.76000000000000000E+02   6.91000000000000000E+02   7.06000000000000000E+02   7.21000000000000000E+02   7.36000000000000000E+02
             7.51000000000000000E+02   7.66000000000000000E+02   7.81000000000000000E+02   7.96000000000000000E+02   8.11000000000000000E+02
             8.26000000000000000E+02   8.41000000000000000E+02
 ETA=   27   1.00000000000000000E+00   1.60000000000000000E+01   3.10000000000000000E+01   4.60000000000000000E+01   6.10000000000000000E+01
             7.60000000000000000E+01   9.10000000000000000E+01   1.06000000000000000E+02   1.21000000000000000E+02   1.36000000000000000E+02
             1.51000000000000000E+02   1.66000000000000000E+02   1.81000000000000000E+02   1.96000000000000000E+02   2.11000000000000000E+02
             2.26000000000000000E+02   2.41000000000000000E+02   2.56000000000000000E+02   2.71000000000000000E+02   2.86000000000000000E+02
             3.01000000000000000E+02   3.16000000000000000E+02   3.31000000000000000E+02   3.46000000000000000E+02   3.61000000000000000E+02
             3.76000000000000000E+02   3.91000000000000000E+02   4.06000000000000000E+02   4.21000000000000000E+02   4.36000000000000000E+02
             4.51000000000000000E+02   4.66000000000000000E+02   4.81000000000000000E+02   4.96000000000000000E+02   5.11000000000000000E+02
             5.26000000000000000E+02   5.41000000000000000E+02   5.56000000000000000E+02   5.71000000000000000E+02   5.86000000000000000E+02
             6.01000000000000000E+02   6.16000000000000000E+02   6.31000000000000000E+02   6.46000000000000000E+02   6.61000000000000000E+02
             6.76000000000000000E+02   6.91000000000000000E+02   7.06000000000000000E+02   7.21000000000000000E+02   7.36000000000000000E+02
             7.51000000000000000E+02   7.66000000000000000E+02   7.81000000000000000E+02   7.96000000000000000E+02   8.11000000000000000E+02
             8.26000000000000000E+02   8.41000000000000000E+02
 ETA=   28   1.00000000000000000E+00   1.60000000000000000E+01   3.10000000000000000E+01   4.60000000000000000E+01   6.10000000000000000E+01
             7.60000000000000000E+01   9.10000000000000000E+01   1.06000000000000000E+02   1.21000000000000000E+02   1.36000000000000000E+02
             1.51000000000000000E+02   1.66000000000000000E+02   1.81000000000000000E+02   1.96000000000000000E+02   2.11000000000000000E+02
             2.26000000000000000E+02   2.41000000000000000E+02   2.56000000000000000E+02   2.71000000000000000E+02   2.86000000000000000E+02
             3.01000000000000000E+02   3.16000000000000000E+02   3.31000000000000000E+02   3.46000000000000000E+02   3.61000000000000000E+02
             3.76000000000000000E+02   3.91000000000000000E+02   4.06000000000000000E+02   4.21000000000000000E+02   4.36000000000000000E+02
             4.51000000000000000E+02   4.66000000000000000E+02   4.81000000000000000E+02   4.96000000000000000E+02   5.11000000000000000E+02
             5.26000000000000000E+02   5.41000000000000000E+02   5.56000000000000000E+02   5.71000000000000000E+02   5.86000000000000000E+02
             6.01000000000000000E+02   6.16000000000000000E+02   6.31000000000000000E+02   6.46000000000000000E+02   6.61000000000000000E+02
             6.76000000000000000E+02   6.91000000000000000E+02   7.06000000000000000E+02   7.21000000000000000E+02   7.36000000000000000E+02
             7.51000000000000000E+02   7.66000000000000000E+02   7.81000000000000000E+02   7.96000000000000000E+02   8.11000000000000000E+02
             8.26000000000000000E+02   8.41000000000000000E+02
 ETA=   29   1.00000000000000000E+00   1.60000000000000000E+01   3.10000000000000000E+01   4.60000000000000000E+01   6.10000000000000000E+01
             7.60000000000000000E+01   9.10000000000000000E+01   1.06000000000000000E+02   1.21000000000000000E+02   1.36000000000000000E+02
             1.51000000000000000E+02   1.66000000000000000E+02   1.81000000000000000E+02   1.96000000000000000E+02   2.11000000000000000E+02
             2.26000000000000000E+02   2.41000000000000000E+02   2.56000000000000000E+02   2.71000000000000000E+02   2.86000000000000000E+02
             3.01000000000000000E+02   3.16000000000000000E+02   3.31000000000000000E+02   3.46000000000000000E+02   3.61000000000000000E+02
             3.76000000000000000E+02   3.91000000000000000E+02   4.06000000000000000E+02   4.21000000000000000E+02   4.36000000000000000E+02
             4.51000000000000000E+02   4.66000000000000000E+02   4.81000000000000000E+02   4.96000000000000000E+02   5.11000000000000000E+02
             5.26000000000000000E+02   5.41000000000000000E+02   5.56000000000000000E+02   5.71000000000000000E+02   5.86000000000000000E+02
             6.01000000000000000E+02   6.16000000000000000E+02   6.31000000000000000E+02   6.46000000000000000E+02   6.61000000000000000E+02
             6.76000000000000000E+02   6.91000000000000000E+02   7.06000000000000000E+02   7.21000000000000000E+02   7.36000000000000000E+02
             7.51000000000000000E+02   7.66000000000000000E+02   7.81000000000000000E+02   7.96000000000000000E+02   8.11000000000000000E+02
             8.26000000000000000E+02   8.41000000000000000E+02
 ETA=   30   1.00000000000000000E+00   1.60000000000000000E+01   3.10000000000000000E+01   4.60000000000000000E+01   6.10000000000000000E+01
             7.60000000000000000E+01   9.10000000000000000E+01   1.06000000000000000E+02   1.21000000000000000E+02   1.36000000000000000E+02
             1.51000000000000000E+02   1.66000000000000000E+02   1.81000000000000000E+02   1.96000000000000000E+02   2.11000000000000000E+02
             2.26000000000000000E+02   2.41000000000000000E+02   2.56000000000000000E+02   2.71000000000000000E+02   2.86000000000000000E+02
             3.01000000000000000E+02   3.16000000000000000E+02   3.31000000000000000E+02   3.46000000000000000E+02   3.61000000000000000E+02
             3.76000000000000000E+02   3.91000000000000000E+02   4.06000000000000000E+02   4.21000000000000000E+02   4.36000000000000000E+02
             4.51000000000000000E+02   4.66000000000000000E+02   4.81000000000000000E+02   4.96000000000000000E+02   5.11000000000000000E+02
             5.26000000000000000E+02   5.41000000000000000E+02   5.56000000000000000E+02   5.71000000000000000E+02   5.86000000000000000E+02
             6.01000000000000000E+02   6.16000000000000000E+02   6.31000000000000000E+02   6.46000000000000000E+02   6.61000000000000000E+02
             6.76000000000000000E+02   6.91000000000000000E+02   7.06000000000000000E+02   7.21000000000000000E+02   7.36000000000000000E+02
             7.51000000000000000E+02   7.66000000000000000E+02   7.81000000000000000E+02   7.96000000000000000E+02   8.11000000000000000E+02
             8.26000000000000000E+02   8.41000000000000000E+02
 ETA=   31   1.00000000000000000E+00   1.60000000000000000E+01   3.10000000000000000E+01   4.60000000000000000E+01   6.10000000000000000E+01
             7.60000000000000000E+01   9.10000000000000000E+01   1.06000000000000000E+02   1.21000000000000000E+02   1.36000000000000000E+02
             1.51000000000000000E+02   1.66000000000000000E+02   1.81000000000000000E+02   1.96000000000000000E+02   2.11000000000000000E+02
             2.26000000000000000E+02   2.41000000000000000E+02   2.56000000000000000E+02   2.71000000000000000E+02   2.86000000000000000E+02
             3.01000000000000000E+02   3.16000000000000000E+02   3.31000000000000000E+02   3.46000000000000000E+02   3.61000000000000000E+02
             3.76000000000000000E+02   3.91000000000000000E+02   4.06000000000000000E+02   4.21000000000000000E+02   4.36000000000000000E+02
             4.51000000000000000E+02   4.66000000000000000E+02   4.81000000000000000E+02   4.96000000000000000E+02   5.11000000000000000E+02
             5.26000000000000000E+02   5.41000000000000000E+02   5.56000000000000000E+02   5.71000000000000000E+02   5.86000000000000000E+02
             6.01000000000000000E+02   6.16000000000000000E+02   6.31000000000000000E+02   6.46000000000000000E+02   6.61000000000000000E+02
             6.76000000000000000E+02   6.91000000000000000E+02   7.06000000000000000E+02   7.21000000000000000E+02   7.36000000000000000E+02
             7.51000000000000000E+02   7.66000000000000000E+02   7.81000000000000000E+02   7.96000000000000000E+02   8.11000000000000000E+02
             8.26000000000000000E+02   8.41000000000000000E+02
 ETA=   32   1.00000000000000000E+00   1.60000000000000000E+01   3.10000000000000000E+01   4.60000000000000000E+01   6.10000000000000000E+01
             7.60000000000000000E+01   9.10000000000000000E+01   1.06000000000000000E+02   1.21000000000000000E+02   1.36000000000000000E+02
             1.51000000000000000E+02   1.66000000000000000E+02   1.81000000000000000E+02   1.96000000000000000E+02   2.11000000000000000E+02
             2.26000000000000000E+02   2.41000000000000000E+02   2.56000000000000000E+02   2.71000000000000000E+02   2.86000000000000000E+02
             3.01000000000000000E+02   3.16000000000000000E+02   3.31000000000000000E+02   3.46000000000000000E+02   3.61000000000000000E+02
             3.76000000000000000E+02   3.91000000000000000E+02   4.06000000000000000E+02   4.21000000000000000E+02   4.36000000000000000E+02
             4.51000000000000000E+02   4.66000000000000000E+02   4.81000000000000000E+02   4.96000000000000000E+02   5.11000000000000000E+02
             5.26000000000000000E+02   5.41000000000000000E+02   5.56000000000000000E+02   5.71000000000000000E+02   5.86000000000000000E+02
             6.01000000000000000E+02   6.16000000000000000E+02   6.31000000000000000E+02   6.46000000000000000E+02   6.61000000000000000E+02
             6.76000000000000000E+02   6.91000000000000000E+02   7.06000000000000000E+02   7.21000000000000000E+02   7.36000000000000000E+02
             7.51000000000000000E+02   7.66000000000000000E+02   7.81000000000000000E+02   7.96000000000000000E+02   8.11000000000000000E+02
             8.26000000000000000E+02   8.41000000000000000E+02
 ETA=   33   1.00000000000000000E+00   1.60000000000000000E+01   3.10000000000000000E+01   4.60000000000000000E+01   6.10000000000000000E+01
             7.60000000000000000E+01   9.10000000000000000E+01   1.06000000000000000E+02   1.21000000000000000E+02   1.36000000000000000E+02
             1.51000000000000000E+02   1.66000000000000000E+02   1.81000000000000000E+02   1.96000000000000000E+02   2.11000000000000000E+02
             2.26000000000000000E+02   2.41000000000000000E+02   2.56000000000000000E+02   2.71000000000000000E+02   2.86000000000000000E+02
             3.01000000000000000E+02   3.16000000000000000E+02   3.31000000000000000E+02   3.46000000000000000E+02   3.61000000000000000E+02
             3.76000000000000000E+02   3.91000000000000000E+02   4.06000000000000000E+02   4.21000000000000000E+02   4.36000000000000000E+02
             4.51000000000000000E+02   4.66000000000000000E+02   4.81000000000000000E+02   4.96000000000000000E+02   5.11000000000000000E+02
             5.26000000000000000E+02   5.41000000000000000E+02   5.56000000000000000E+02   5.71000000000000000E+02   5.86000000000000000E+02
             6.01000000000000000E+02   6.16000000000000000E+02   6.31000000000000000E+02   6.46000000000000000E+02   6.61000000000000000E+02
             6.76000000000000000E+02   6.91000000000000000E+02   7.06000000000000000E+02   7.21000000000000000E+02   7.36000000000000000E+02
             7.51000000000000000E+02   7.66000000000000000E+02   7.81000000000000000E+02   7.96000000000000000E+02   8.11000000000000000E+02
             8.26000000000000000E+02   8.41000000000000000E+02
 ETA=   34   1.00000000000000000E+00   1.60000000000000000E+01   3.10000000000000000E+01   4.60000000000000000E+01   6.10000000000000000E+01
             7.60000000000000000E+01   9.10000000000000000E+01   1.06000000000000000E+02   1.21000000000000000E+02   1.36000000000000000E+02
             1.51000000000000000E+02   1.66000000000000000E+02   1.81000000000000000E+02   1.96000000000000000E+02   2.11000000000000000E+02
             2.26000000000000000E+02   2.41000000000000000E+02   2.56000000000000000E+02   2.71000000000000000E+02   2.86000000000000000E+02
             3.01000000000000000E+02   3.16000000000000000E+02   3.31000000000000000E+02   3.46000000000000000E+02   3.61000000000000000E+02
             3.76000000000000000E+02   3.91000000000000000E+02   4.06000000000000000E+02   4.21000000000000000E+02   4.36000000000000000E+02
             4.51000000000000000E+02   4.66000000000000000E+02   4.81000000000000000E+02   4.96000000000000000E+02   5.11000000000000000E+02
             5.26000000000000000E+02   5.41000000000000000E+02   5.56000000000000000E+02   5.71000000000000000E+02   5.86000000000000000E+02
             6.01000000000000000E+02   6.16000000000000000E+02   6.31000000000000000E+02   6.46000000000000000E+02   6.61000000000000000E+02
             6.76000000000000000E+02   6.91000000000000000E+02   7.06000000000000000E+02   7.21000000000000000E+02   7.36000000000000000E+02
             7.51000000000000000E+02   7.66000000000000000E+02   7.81000000000000000E+02   7.96000000000000000E+02   8.11000000000000000E+02
             8.26000000000000000E+02   8.41000000000000000E+02
 ETA=   35   1.00000000000000000E+00   1.60000000000000000E+01   3.10000000000000000E+01   4.60000000000000000E+01   6.10000000000000000E+01
             7.60000000000000000E+01   9.10000000000000000E+01   1.06000000000000000E+02   1.21000000000000000E+02   1.36000000000000000E+02
             1.51000000000000000E+02   1.66000000000000000E+02   1.81000000000000000E+02   1.96000000000000000E+02   2.11000000000000000E+02
             2.26000000000000000E+02   2.41000000000000000E+02   2.56000000000000000E+02   2.71000000000000000E+02   2.86000000000000000E+02
             3.01000000000000000E+02   3.16000000000000000E+02   3.31000000000000000E+02   3.46000000000000000E+02   3.61000000000000000E+02
             3.76000000000000000E+02   3.91000000000000000E+02   4.06000000000000000E+02   4.21000000000000000E+02   4.36000000000000000E+02
             4.51000000000000000E+02   4.66000000000000000E+02   4.81000000000000000E+02   4.96000000000000000E+02   5.11000000000000000E+02
             5.26000000000000000E+02   5.41000000000000000E+02   5.56000000000000000E+02   5.71000000000000000E+02   5.86000000000000000E+02
             6.01000000000000000E+02   6.16000000000000000E+02   6.31000000000000000E+02   6.46000000000000000E+02   6.61000000000000000E+02
             6.76000000000000000E+02   6.91000000000000000E+02   7.06000000000000000E+02   7.21000000000000000E+02   7.36000000000000000E+02
             7.51000000000000000E+02   7.66000000000000000E+02   7.81000000000000000E+02   7.96000000000000000E+02   8.11000000000000000E+02
             8.26000000000000000E+02   8.41000000000000000E+02
 ETA=   36   1.00000000000000000E+00   1.60000000000000000E+01   3.10000000000000000E+01   4.60000000000000000E+01   6.10000000000000000E+01
             7.60000000000000000E+01   9.10000000000000000E+01   1.06000000000000000E+02   1.21000000000000000E+02   1.36000000000000000E+02
             1.51000000000000000E+02   1.66000000000000000E+02   1.81000000000000000E+02   1.96000000000000000E+02   2.11000000000000000E+02
             2.26000000000000000E+02   2.41000000000000000E+02   2.56000000000000000E+02   2.71000000000000000E+02   2.86000000000000000E+02
             3.01000000000000000E+02   3.16000000000000000E+02   3.31000000000000000E+02   3.46000000000000000E+02   3.61000000000000000E+02
             3.76000000000000000E+02   3.91000000000000000E+02   4.06000000000000000E+02   4.21000000000000000E+02   4.36000000000000000E+02
             4.51000000000000000E+02   4.66000000000000000E+02   4.81000000000000000E+02   4.96000000000000000E+02   5.11000000000000000E+02
             5.26000000000000000E+02   5.41000000000000000E+02   5.56000000000000000E+02   5.71000000000000000E+02   5.86000000000000000E+02
             6.01000000000000000E+02   6.16000000000000000E+02   6.31000000000000000E+02   6.46000000000000000E+02   6.61000000000000000E+02
             6.76000000000000000E+02   6.91000000000000000E+02   7.06000000000000000E+02   7.21000000000000000E+02   7.36000000000000000E+02
             7.51000000000000000E+02   7.66000000000000000E+02   7.81000000000000000E+02   7.96000000000000000E+02   8.11000000000000000E+02
             8.26000000000000000E+02   8.41000000000000000E+02
 ETA=   37   1.00000000000000000E+00   1.60000000000000000E+01   3.10000000000000000E+01   4.60000000000000000E+01   6.10000000000000000E+01
             7.60000000000000000E+01   9.10000000000000000E+01   1.06000000000000000E+02   1.21000000000000000E+02   1.36000000000000000E+02
             1.51000000000000000E+02   1.66000000000000000E+02   1.81000000000000000E+02   1.96000000000000000E+02   2.11000000000000000E+02
             2.26000000000000000E+02   2.41000000000000000E+02   2.56000000000000000E+02   2.71000000000000000E+02   2.86000000000000000E+02
             3.01000000000000000E+02   3.16000000000000000E+02   3.31000000000000000E+02   3.46000000000000000E+02   3.61000000000000000E+02
             3.76000000000000000E+02   3.91000000000000000E+02   4.06000000000000000E+02   4.21000000000000000E+02   4.36000000000000000E+02
             4.51000000000000000E+02   4.66000000000000000E+02   4.81000000000000000E+02   4.96000000000000000E+02   5.11000000000000000E+02
             5.26000000000000000E+02   5.41000000000000000E+02   5.56000000000000000E+02   5.71000000000000000E+02   5.86000000000000000E+02
             6.01000000000000000E+02   6.16000000000000000E+02   6.31000000000000000E+02   6.46000000000000000E+02   6.61000000000000000E+02
             6.76000000000000000E+02   6.91000000000000000E+02   7.06000000000000000E+02   7.21000000000000000E+02   7.36000000000000000E+02
             7.51000000000000000E+02   7.66000000000000000E+02   7.81000000000000000E+02   7.96000000000000000E+02   8.11000000000000000E+02
             8.26000000000000000E+02   8.41000000000000000E+02
 ETA=   38   1.00000000000000000E+00   1.60000000000000000E+01   3.10000000000000000E+01   4.60000000000000000E+01   6.10000000000000000E+01
             7.60000000000000000E+01   9.10000000000000000E+01   1.06000000000000000E+02   1.21000000000000000E+02   1.36000000000000000E+02
             1.51000000000000000E+02   1.66000000000000000E+02   1.81000000000000000E+02   1.96000000000000000E+02   2.11000000000000000E+02
             2.26000000000000000E+02   2.41000000000000000E+02   2.56000000000000000E+02   2.71000000000000000E+02   2.86000000000000000E+02
             3.01000000000000000E+02   3.16000000000000000E+02   3.31000000000000000E+02   3.46000000000000000E+02   3.61000000000000000E+02
             3.76000000000000000E+02   3.91000000000000000E+02   4.06000000000000000E+02   4.21000000000000000E+02   4.36000000000000000E+02
             4.51000000000000000E+02   4.66000000000000000E+02   4.81000000000000000E+02   4.96000000000000000E+02   5.11000000000000000E+02
             5.26000000000000000E+02   5.41000000000000000E+02   5.56000000000000000E+02   5.71000000000000000E+02   5.86000000000000000E+02
             6.01000000000000000E+02   6.16000000000000000E+02   6.31000000000000000E+02   6.46000000000000000E+02   6.61000000000000000E+02
             6.76000000000000000E+02   6.91000000000000000E+02   7.06000000000000000E+02   7.21000000000000000E+02   7.36000000000000000E+02
             7.51000000000000000E+02   7.66000000000000000E+02   7.81000000000000000E+02   7.96000000000000000E+02   8.11000000000000000E+02
             8.26000000000000000E+02   8.41000000000000000E+02
 ETA=   39   1.00000000000000000E+00   1.60000000000000000E+01   3.10000000000000000E+01   4.60000000000000000E+01   6.10000000000000000E+01
             7.60000000000000000E+01   9.10000000000000000E+01   1.06000000000000000E+02   1.21000000000000000E+02   1.36000000000000000E+02
             1.51000000000000000E+02   1.66000000000000000E+02   1.81000000000000000E+02   1.96000000000000000E+02   2.11000000000000000E+02
             2.26000000000000000E+02   2.41000000000000000E+02   2.56000000000000000E+02   2.71000000000000000E+02   2.86000000000000000E+02
             3.01000000000000000E+02   3.16000000000000000E+02   3.31000000000000000E+02   3.46000000000000000E+02   3.61000000000000000E+02
             3.76000000000000000E+02   3.91000000000000000E+02   4.06000000000000000E+02   4.21000000000000000E+02   4.36000000000000000E+02
             4.51000000000000000E+02   4.66000000000000000E+02   4.81000000000000000E+02   4.96000000000000000E+02   5.11000000000000000E+02
             5.26000000000000000E+02   5.41000000000000000E+02   5.56000000000000000E+02   5.71000000000000000E+02   5.86000000000000000E+02
             6.01000000000000000E+02   6.16000000000000000E+02   6.31000000000000000E+02   6.46000000000000000E+02   6.61000000000000000E+02
             6.76000000000000000E+02   6.91000000000000000E+02   7.06000000000000000E+02   7.21000000000000000E+02   7.36000000000000000E+02
             7.51000000000000000E+02   7.66000000000000000E+02   7.81000000000000000E+02   7.96000000000000000E+02   8.11000000000000000E+02
             8.26000000000000000E+02   8.41000000000000000E+02
 ETA=   40   1.00000000000000000E+00   1.60000000000000000E+01   3.10000000000000000E+01   4.60000000000000000E+01   6.10000000000000000E+01
             7.60000000000000000E+01   9.10000000000000000E+01   1.06000000000000000E+02   1.21000000000000000E+02   1.36000000000000000E+02
             1.51000000000000000E+02   1.66000000000000000E+02   1.81000000000000000E+02   1.96000000000000000E+02   2.11000000000000000E+02
             2.26000000000000000E+02   2.41000000000000000E+02   2.56000000000000000E+02   2.71000000000000000E+02   2.86000000000000000E+02
             3.01000000000000000E+02   3.16000000000000000E+02   3.31000000000000000E+02   3.46000000000000000E+02   3.61000000000000000E+02
             3.76000000000000000E+02   3.91000000000000000E+02   4.06000000000000000E+02   4.21000000000000000E+02   4.36000000000000000E+02
             4.51000000000000000E+02   4.66000000000000000E+02   4.81000000000000000E+02   4.96000000000000000E+02   5.11000000000000000E+02
             5.26000000000000000E+02   5.41000000000000000E+02   5.56000000000000000E+02   5.71000000000000000E+02   5.86000000000000000E+02
             6.01000000000000000E+02   6.16000000000000000E+02   6.31000000000000000E+02   6.46000000000000000E+02   6.61000000000000000E+02
             6.76000000000000000E+02   6.91000000000000000E+02   7.06000000000000000E+02   7.21000000000000000E+02   7.36000000000000000E+02
             7.51000000000000000E+02   7.66000000000000000E+02   7.81000000000000000E+02   7.96000000000000000E+02   8.11000000000000000E+02
             8.26000000000000000E+02   8.41000000000000000E+02
 ETA=   41   1.00000000000000000E+00   1.60000000000000000E+01   3.10000000000000000E+01   4.60000000000000000E+01   6.10000000000000000E+01
             7.60000000000000000E+01   9.10000000000000000E+01   1.06000000000000000E+02   1.21000000000000000E+02   1.36000000000000000E+02
             1.51000000000000000E+02   1.66000000000000000E+02   1.81000000000000000E+02   1.96000000000000000E+02   2.11000000000000000E+02
             2.26000000000000000E+02   2.41000000000000000E+02   2.56000000000000000E+02   2.71000000000000000E+02   2.86000000000000000E+02
             3.01000000000000000E+02   3.16000000000000000E+02   3.31000000000000000E+02   3.46000000000000000E+02   3.61000000000000000E+02
             3.76000000000000000E+02   3.91000000000000000E+02   4.06000000000000000E+02   4.21000000000000000E+02   4.36000000000000000E+02
             4.51000000000000000E+02   4.66000000000000000E+02   4.81000000000000000E+02   4.96000000000000000E+02   5.11000000000000000E+02
             5.26000000000000000E+02   5.41000000000000000E+02   5.56000000000000000E+02   5.71000000000000000E+02   5.86000000000000000E+02
             6.01000000000000000E+02   6.16000000000000000E+02   6.31000000000000000E+02   6.46000000000000000E+02   6.61000000000000000E+02
             6.76000000000000000E+02   6.91000000000000000E+02   7.06000000000000000E+02   7.21000000000000000E+02   7.36000000000000000E+02
             7.51000000000000000E+02   7.66000000000000000E+02   7.81000000000000000E+02   7.96000000000000000E+02   8.11000000000000000E+02
             8.26000000000000000E+02   8.41000000000000000E+02
 ETA=   42   1.00000000000000000E+00   1.60000000000000000E+01   3.10000000000000000E+01   4.60000000000000000E+01   6.10000000000000000E+01
             7.60000000000000000E+01   9.10000000000000000E+01   1.06000000000000000E+02   1.21000000000000000E+02   1.36000000000000000E+02
             1.51000000000000000E+02   1.66000000000000000E+02   1.81000000000000000E+02   1.96000000000000000E+02   2.11000000000000000E+02
             2.26000000000000000E+02   2.41000000000000000E+02   2.56000000000000000E+02   2.71000000000000000E+02   2.86000000000000000E+02
             3.01000000000000000E+02   3.16000000000000000E+02   3.31000000000000000E+02   3.46000000000000000E+02   3.61000000000000000E+02
             3.76000000000000000E+02   3.91000000000000000E+02   4.06000000000000000E+02   4.21000000000000000E+02   4.36000000000000000E+02
             4.51000000000000000E+02   4.66000000000000000E+02   4.81000000000000000E+02   4.96000000000000000E+02   5.11000000000000000E+02
             5.26000000000000000E+02   5.41000000000000000E+02   5.56000000000000000E+02   5.71000000000000000E+02   5.86000000000000000E+02
             6.01000000000000000E+02   6.16000000000000000E+02   6.31000000000000000E+02   6.46000000000000000E+02   6.61000000000000000E+02
             6.76000000000000000E+02   6.91000000000000000E+02   7.06000000000000000E+02   7.21000000000000000E+02   7.36000000000000000E+02
             7.51000000000000000E+02   7.66000000000000000E+02   7.81000000000000000E+02   7.96000000000000000E+02   8.11000000000000000E+02
             8.26000000000000000E+02   8.41000000000000000E+02
 ETA=   43   1.00000000000000000E+00   1.60000000000000000E+01   3.10000000000000000E+01   4.60000000000000000E+01   6.10000000000000000E+01
             7.60000000000000000E+01   9.10000000000000000E+01   1.06000000000000000E+02   1.21000000000000000E+02   1.36000000000000000E+02
             1.51000000000000000E+02   1.66000000000000000E+02   1.81000000000000000E+02   1.96000000000000000E+02   2.11000000000000000E+02
             2.26000000000000000E+02   2.41000000000000000E+02   2.56000000000000000E+02   2.71000000000000000E+02   2.86000000000000000E+02
             3.01000000000000000E+02   3.16000000000000000E+02   3.31000000000000000E+02   3.46000000000000000E+02   3.61000000000000000E+02
             3.76000000000000000E+02   3.91000000000000000E+02   4.06000000000000000E+02   4.21000000000000000E+02   4.36000000000000000E+02
             4.51000000000000000E+02   4.66000000000000000E+02   4.81000000000000000E+02   4.96000000000000000E+02   5.11000000000000000E+02
             5.26000000000000000E+02   5.41000000000000000E+02   5.56000000000000000E+02   5.71000000000000000E+02   5.86000000000000000E+02
             6.01000000000000000E+02   6.16000000000000000E+02   6.31000000000000000E+02   6.46000000000000000E+02   6.61000000000000000E+02
             6.76000000000000000E+02   6.91000000000000000E+02   7.06000000000000000E+02   7.21000000000000000E+02   7.36000000000000000E+02
             7.51000000000000000E+02   7.66000000000000000E+02   7.81000000000000000E+02   7.96000000000000000E+02   8.11000000000000000E+02
             8.26000000000000000E+02   8.41000000000000000E+02
 ETA=   44   1.00000000000000000E+00   1.60000000000000000E+01   3.10000000000000000E+01   4.60000000000000000E+01   6.10000000000000000E+01
             7.60000000000000000E+01   9.10000000000000000E+01   1.06000000000000000E+02   1.21000000000000000E+02   1.36000000000000000E+02
             1.51000000000000000E+02   1.66000000000000000E+02   1.81000000000000000E+02   1.96000000000000000E+02   2.11000000000000000E+02
             2.26000000000000000E+02   2.41000000000000000E+02   2.56000000000000000E+02   2.71000000000000000E+02   2.86000000000000000E+02
             3.01000000000000000E+02   3.16000000000000000E+02   3.31000000000000000E+02   3.46000000000000000E+02   3.61000000000000000E+02
             3.76000000000000000E+02   3.91000000000000000E+02   4.06000000000000000E+02   4.21000000000000000E+02   4.36000000000000000E+02
             4.51000000000000000E+02   4.66000000000000000E+02   4.81000000000000000E+02   4.96000000000000000E+02   5.11000000000000000E+02
             5.26000000000000000E+02   5.41000000000000000E+02   5.56000000000000000E+02   5.71000000000000000E+02   5.86000000000000000E+02
             6.01000000000000000E+02   6.16000000000000000E+02   6.31000000000000000E+02   6.46000000000000000E+02   6.61000000000000000E+02
             6.76000000000000000E+02   6.91000000000000000E+02   7.06000000000000000E+02   7.21000000000000000E+02   7.36000000000000000E+02
             7.51000000000000000E+02   7.66000000000000000E+02   7.81000000000000000E+02   7.96000000000000000E+02   8.11000000000000000E+02
             8.26000000000000000E+02   8.41000000000000000E+02
 ETA=   45   1.00000000000000000E+00   1.60000000000000000E+01   3.10000000000000000E+01   4.60000000000000000E+01   6.10000000000000000E+01
             7.60000000000000000E+01   9.10000000000000000E+01   1.06000000000000000E+02   1.21000000000000000E+02   1.36000000000000000E+02
             1.51000000000000000E+02   1.66000000000000000E+02   1.81000000000000000E+02   1.96000000000000000E+02   2.11000000000000000E+02
             2.26000000000000000E+02   2.41000000000000000E+02   2.56000000000000000E+02   2.71000000000000000E+02   2.86000000000000000E+02
             3.01000000000000000E+02   3.16000000000000000E+02   3.31000000000000000E+02   3.46000000000000000E+02   3.61000000000000000E+02
             3.76000000000000000E+02   3.91000000000000000E+02   4.06000000000000000E+02   4.21000000000000000E+02   4.36000000000000000E+02
             4.51000000000000000E+02   4.66000000000000000E+02   4.81000000000000000E+02   4.96000000000000000E+02   5.11000000000000000E+02
             5.26000000000000000E+02   5.41000000000000000E+02   5.56000000000000000E+02   5.71000000000000000E+02   5.86000000000000000E+02
             6.01000000000000000E+02   6.16000000000000000E+02   6.31000000000000000E+02   6.46000000000000000E+02   6.61000000000000000E+02
             6.76000000000000000E+02   6.91000000000000000E+02   7.06000000000000000E+02   7.21000000000000000E+02   7.36000000000000000E+02
             7.51000000000000000E+02   7.66000000000000000E+02   7.81000000000000000E+02   7.96000000000000000E+02   8.11000000000000000E+02
             8.26000000000000000E+02   8.41000000000000000E+02
 ETA=   46   1.00000000000000000E+00   1.60000000000000000E+01   3.10000000000000000E+01   4.60000000000000000E+01   6.10000000000000000E+01
             7.60000000000000000E+01   9.10000000000000000E+01   1.06000000000000000E+02   1.21000000000000000E+02   1.36000000000000000E+02
             1.51000000000000000E+02   1.66000000000000000E+02   1.81000000000000000E+02   1.96000000000000000E+02   2.11000000000000000E+02
             2.26000000000000000E+02   2.41000000000000000E+02   2.56000000000000000E+02   2.71000000000000000E+02   2.86000000000000000E+02
             3.01000000000000000E+02   3.16000000000000000E+02   3.31000000000000000E+02   3.46000000000000000E+02   3.61000000000000000E+02
             3.76000000000000000E+02   3.91000000000000000E+02   4.06000000000000000E+02   4.21000000000000000E+02   4.36000000000000000E+02
             4.51000000000000000E+02   4.66000000000000000E+02   4.81000000000000000E+02   4.96000000000000000E+02   5.11000000000000000E+02
             5.26000000000000000E+02   5.41000000000000000E+02   5.56000000000000000E+02   5.71000000000000000E+02   5.86000000000000000E+02
             6.01000000000000000E+02   6.16000000000000000E+02   6.31000000000000000E+02   6.46000000000000000E+02   6.61000000000000000E+02
             6.76000000000000000E+02   6.91000000000000000E+02   7.06000000000000000E+02   7.21000000000000000E+02   7.36000000000000000E+02
             7.51000000000000000E+02   7.66000000000000000E+02   7.81000000000000000E+02   7.96000000000000000E+02   8.11000000000000000E+02
             8.26000000000000000E+02   8.41000000000000000E+02
 ETA=   47   1.00000000000000000E+00   1.60000000000000000E+01   3.10000000000000000E+01   4.60000000000000000E+01   6.10000000000000000E+01
             7.60000000000000000E+01   9.10000000000000000E+01   1.06000000000000000E+02   1.21000000000000000E+02   1.36000000000000000E+02
             1.51000000000000000E+02   1.66000000000000000E+02   1.81000000000000000E+02   1.96000000000000000E+02   2.11000000000000000E+02
             2.26000000000000000E+02   2.41000000000000000E+02   2.56000000000000000E+02   2.71000000000000000E+02   2.86000000000000000E+02
             3.01000000000000000E+02   3.16000000000000000E+02   3.31000000000000000E+02   3.46000000000000000E+02   3.61000000000000000E+02
             3.76000000000000000E+02   3.91000000000000000E+02   4.06000000000000000E+02   4.21000000000000000E+02   4.36000000000000000E+02
             4.51000000000000000E+02   4.66000000000000000E+02   4.81000000000000000E+02   4.96000000000000000E+02   5.11000000000000000E+02
             5.26000000000000000E+02   5.41000000000000000E+02   5.56000000000000000E+02   5.71000000000000000E+02   5.86000000000000000E+02
             6.01000000000000000E+02   6.16000000000000000E+02   6.31000000000000000E+02   6.46000000000000000E+02   6.61000000000000000E+02
             6.76000000000000000E+02   6.91000000000000000E+02   7.06000000000000000E+02   7.21000000000000000E+02   7.36000000000000000E+02
             7.51000000000000000E+02   7.66000000000000000E+02   7.81000000000000000E+02   7.96000000000000000E+02   8.11000000000000000E+02
             8.26000000000000000E+02   8.41000000000000000E+02
 ETA=   48   1.00000000000000000E+00   1.60000000000000000E+01   3.10000000000000000E+01   4.60000000000000000E+01   6.10000000000000000E+01
             7.60000000000000000E+01   9.10000000000000000E+01   1.06000000000000000E+02   1.21000000000000000E+02   1.36000000000000000E+02
             1.51000000000000000E+02   1.66000000000000000E+02   1.81000000000000000E+02   1.96000000000000000E+02   2.11000000000000000E+02
             2.26000000000000000E+02   2.41000000000000000E+02   2.56000000000000000E+02   2.71000000000000000E+02   2.86000000000000000E+02
             3.01000000000000000E+02   3.16000000000000000E+02   3.31000000000000000E+02   3.46000000000000000E+02   3.61000000000000000E+02
             3.76000000000000000E+02   3.91000000000000000E+02   4.06000000000000000E+02   4.21000000000000000E+02   4.36000000000000000E+02
             4.51000000000000000E+02   4.66000000000000000E+02   4.81000000000000000E+02   4.96000000000000000E+02   5.11000000000000000E+02
             5.26000000000000000E+02   5.41000000000000000E+02   5.56000000000000000E+02   5.71000000000000000E+02   5.86000000000000000E+02
             6.01000000000000000E+02   6.16000000000000000E+02   6.31000000000000000E+02   6.46000000000000000E+02   6.61000000000000000E+02
             6.76000000000000000E+02   6.91000000000000000E+02   7.06000000000000000E+02   7.21000000000000000E+02   7.36000000000000000E+02
             7.51000000000000000E+02   7.66000000000000000E+02   7.81000000000000000E+02   7.96000000000000000E+02   8.11000000000000000E+02
             8.26000000000000000E+02   8.41000000000000000E+02
 ETA=   49   1.00000000000000000E+00   1.60000000000000000E+01   3.10000000000000000E+01   4.60000000000000000E+01   6.10000000000000000E+01
             7.60000000000000000E+01   9.10000000000000000E+01   1.06000000000000000E+02   1.21000000000000000E+02   1.36000000000000000E+02
             1.51000000000000000E+02   1.66000000000000000E+02   1.81000000000000000E+02   1.96000000000000000E+02   2.11000000000000000E+02
             2.26000000000000000E+02   2.41000000000000000E+02   2.56000000000000000E+02   2.71000000000000000E+02   2.86000000000000000E+02
             3.01000000000000000E+02   3.16000000000000000E+02   3.31000000000000000E+02   3.46000000000000000E+02   3.61000000000000000E+02
             3.76000000000000000E+02   3.91000000000000000E+02   4.06000000000000000E+02   4.21000000000000000E+02   4.36000000000000000E+02
             4.51000000000000000E+02   4.66000000000000000E+02   4.81000000000000000E+02   4.96000000000000000E+02   5.11000000000000000E+02
             5.26000000000000000E+02   5.41000000000000000E+02   5.56000000000000000E+02   5.71000000000000000E+02   5.86000000000000000E+02
             6.01000000000000000E+02   6.16000000000000000E+02   6.31000000000000000E+02   6.46000000000000000E+02   6.61000000000000000E+02
             6.76000000000000000E+02   6.91000000000000000E+02   7.06000000000000000E+02   7.21000000000000000E+02   7.36000000000000000E+02
             7.51000000000000000E+02   7.66000000000000000E+02   7.81000000000000000E+02   7.96000000000000000E+02   8.11000000000000000E+02
             8.26000000000000000E+02   8.41000000000000000E+02
 ETA=   50   1.00000000000000000E+00   1.60000000000000000E+01   3.10000000000000000E+01   4.60000000000000000E+01   6.10000000000000000E+01
[...]
             1.47100000000000000E+03   1.47100000000000000E+03   1.47100000000000000E+03   1.47100000000000000E+03   1.47100000000000000E+03
             1.47100000000000000E+03   1.47100000000000000E+03   1.47100000000000000E+03   1.47100000000000000E+03   1.47100000000000000E+03
             1.47100000000000000E+03   1.47100000000000000E+03
 ETA=  100   1.48600000000000000E+03   1.48600000000000000E+03   1.48600000000000000E+03   1.48600000000000000E+03   1.48600000000000000E+03
             1.48600000000000000E+03   1.48600000000000000E+03   1.48600000000000000E+03   1.48600000000000000E+03   1.48600000000000000E+03
             1.48600000000000000E+03   1.48600000000000000E+03   1.48600000000000000E+03   1.48600000000000000E+03   1.48600000000000000E+03
             1.48600000000000000E+03   1.48600000000000000E+03   1.48600000000000000E+03   1.48600000000000000E+03   1.48600000000000000E+03
             1.48600000000000000E+03   1.48600000000000000E+03   1.48600000000000000E+03   1.48600000000000000E+03   1.48600000000000000E+03
             1.48600000000000000E+03   1.48600000000000000E+03   1.48600000000000000E+03   1.48600000000000000E+03   1.48600000000000000E+03
             1.48600000000000000E+03   1.48600000000000000E+03   1.48600000000000000E+03   1.48600000000000000E+03   1.48600000000000000E+03
             1.48600000000000000E+03   1.48600000000000000E+03   1.48600000000000000E+03   1.48600000000000000E+03   1.48600000000000000E+03
             1.48600000000000000E+03   1.48600000000000000E+03   1.48600000000000000E+03   1.48600000000000000E+03   1.48600000000000000E+03
             1.48600000000000000E+03   1.48600000000000000E+03   1.48600000000000000E+03   1.48600000000000000E+03   1.48600000000000000E+03
             1.48600000000000000E+03   1.48600000000000000E+03   1.48600000000000000E+03   1.48600000000000000E+03   1.48600000000000000E+03
             1.48600000000000000E+03   1.48600000000000000E+03
 ETA=  101   1.50100000000000000E+03   1.50100000000000000E+03   1.50100000000000000E+03   1.50100000000000000E+03   1.50100000000000000E+03
             1.50100000000000000E+03   1.50100000000000000E+03   1.50100000000000000E+03   1.50100000000000000E+03   1.50100000000000000E+03
             1.50100000000000000E+03   1.50100000000000000E+03   1.50100000000000000E+03   1.50100000000000000E+03   1.50100000000000000E+03
             1.50100000000000000E+03   1.50100000000000000E+03   1.50100000000000000E+03   1.50100000000000000E+03   1.50100000000000000E+03
             1.50100000000000000E+03   1.50100000000000000E+03   1.50100000000000000E+03   1.50100000000000000E+03   1.50100000000000000E+03
             1.50100000000000000E+03   1.50100000000000000E+03   1.50100000000000000E+03   1.50100000000000000E+03   1.50100000000000000E+03
             1.50100000000000000E+03   1.50100000000000000E+03   1.50100000000000000E+03   1.50100000000000000E+03   1.50100000000000000E+03
             1.50100000000000000E+03   1.50100000000000000E+03   1.50100000000000000E+03   1.50100000000000000E+03   1.50100000000000000E+03
             1.50100000000000000E+03   1.50100000000000000E+03   1.50100000000000000E+03   1.50100000000000000E+03   1.50100000000000000E+03
             1.50100000000000000E+03   1.50100000000000000E+03   1.50100000000000000E+03   1.50100000000000000E+03   1.50100000000000000E+03
             1.50100000000000000E+03   1.50100000000000000E+03   1.50100000000000000E+03   1.50100000000000000E+03   1.50100000000000000E+03
             1.50100000000000000E+03   1.50100000000000000E+03
 ETA=  102   1.51600000000000000E+03   1.51600000000000000E+03   1.51600000000000000E+03   1.51600000000000000E+03   1.51600000000000000E+03
             1.51600000000000000E+03   1.51600000000000000E+03   1.51600000000000000E+03   1.51600000000000000E+03   1.51600000000000000E+03
             1.51600000000000000E+03   1.51600000000000000E+03   1.51600000000000000E+03   1.51600000000000000E+03   1.51600000000000000E+03
             1.51600000000000000E+03   1.51600000000000000E+03   1.51600000000000000E+03   1.51600000000000000E+03   1.51600000000000000E+03
             1.51600000000000000E+03   1.51600000000000000E+03   1.51600000000000000E+03   1.51600000000000000E+03   1.51600000000000000E+03
             1.51600000000000000E+03   1.51600000000000000E+03   1.51600000000000000E+03   1.51600000000000000E+03   1.51600000000000000E+03
             1.51600000000000000E+03   1.51600000000000000E+03   1.51600000000000000E+03   1.51600000000000000E+03   1.51600000000000000E+03
             1.51600000000000000E+03   1.51600000000000000E+03   1.51600000000000000E+03   1.51600000000000000E+03   1.51600000000000000E+03
             1.51600000000000000E+03   1.51600000000000000E+03   1.51600000000000000E+03   1.51600000000000000E+03   1.51600000000000000E+03
             1.51600000000000000E+03   1.51600000000000000E+03   1.51600000000000000E+03   1.51600000000000000E+03   1.51600000000000000E+03
             1.51600000000000000E+03   1.51600000000000000E+03   1.51600000000000000E+03   1.51600000000000000E+03   1.51600000000000000E+03
             1.51600000000000000E+03   1.51600000000000000E+03
 ETA=  103   1.53100000000000000E+03   1.53100000000000000E+03   1.53100000000000000E+03   1.53100000000000000E+03   1.53100000000000000E+03
             1.53100000000000000E+03   1.53100000000000000E+03   1.53100000000000000E+03   1.53100000000000000E+03   1.53100000000000000E+03
             1.53100000000000000E+03   1.53100000000000000E+03   1.53100000000000000E+03   1.53100000000000000E+03   1.53100000000000000E+03
             1.53100000000000000E+03   1.53100000000000000E+03   1.53100000000000000E+03   1.53100000000000000E+03   1.53100000000000000E+03
             1.53100000000000000E+03   1.53100000000000000E+03   1.53100000000000000E+03   1.53100000000000000E+03   1.53100000000000000E+03
             1.53100000000000000E+03   1.53100000000000000E+03   1.53100000000000000E+03   1.53100000000000000E+03   1.53100000000000000E+03
             1.53100000000000000E+03   1.53100000000000000E+03   1.53100000000000000E+03   1.53100000000000000E+03   1.53100000000000000E+03
             1.53100000000000000E+03   1.53100000000000000E+03   1.53100000000000000E+03   1.53100000000000000E+03   1.53100000000000000E+03
             1.53100000000000000E+03   1.53100000000000000E+03   1.53100000000000000E+03   1.53100000000000000E+03   1.53100000000000000E+03
             1.53100000000000000E+03   1.53100000000000000E+03   1.53100000000000000E+03   1.53100000000000000E+03   1.53100000000000000E+03
             1.53100000000000000E+03   1.53100000000000000E+03   1.53100000000000000E+03   1.53100000000000000E+03   1.53100000000000000E+03
             1.53100000000000000E+03   1.53100000000000000E+03
 ETA=  104   1.54600000000000000E+03   1.54600000000000000E+03   1.54600000000000000E+03   1.54600000000000000E+03   1.54600000000000000E+03
             1.54600000000000000E+03   1.54600000000000000E+03   1.54600000000000000E+03   1.54600000000000000E+03   1.54600000000000000E+03
             1.54600000000000000E+03   1.54600000000000000E+03   1.54600000000000000E+03   1.54600000000000000E+03   1.54600000000000000E+03
             1.54600000000000000E+03   1.54600000000000000E+03   1.54600000000000000E+03   1.54600000000000000E+03   1.54600000000000000E+03
             1.54600000000000000E+03   1.54600000000000000E+03   1.54600000000000000E+03   1.54600000000000000E+03   1.54600000000000000E+03
             1.54600000000000000E+03   1.54600000000000000E+03   1.54600000000000000E+03   1.54600000000000000E+03   1.54600000000000000E+03
             1.54600000000000000E+03   1.54600000000000000E+03   1.54600000000000000E+03   1.54600000000000000E+03   1.54600000000000000E+03
             1.54600000000000000E+03   1.54600000000000000E+03   1.54600000000000000E+03   1.54600000000000000E+03   1.54600000000000000E+03
             1.54600000000000000E+03   1.54600000000000000E+03   1.54600000000000000E+03   1.54600000000000000E+03   1.54600000000000000E+03
             1.54600000000000000E+03   1.54600000000000000E+03   1.54600000000000000E+03   1.54600000000000000E+03   1.54600000000000000E+03
             1.54600000000000000E+03   1.54600000000000000E+03   1.54600000000000000E+03   1.54600000000000000E+03   1.54600000000000000E+03
             1.54600000000000000E+03   1.54600000000000000E+03
 ETA=  105   1.56100000000000000E+03   1.56100000000000000E+03   1.56100000000000000E+03   1.56100000000000000E+03   1.56100000000000000E+03
             1.56100000000000000E+03   1.56100000000000000E+03   1.56100000000000000E+03   1.56100000000000000E+03   1.56100000000000000E+03
             1.56100000000000000E+03   1.56100000000000000E+03   1.56100000000000000E+03   1.56100000000000000E+03   1.56100000000000000E+03
             1.56100000000000000E+03   1.56100000000000000E+03   1.56100000000000000E+03   1.56100000000000000E+03   1.56100000000000000E+03
             1.56100000000000000E+03   1.56100000000000000E+03   1.56100000000000000E+03   1.56100000000000000E+03   1.56100000000000000E+03
             1.56100000000000000E+03   1.56100000000000000E+03   1.56100000000000000E+03   1.56100000000000000E+03   1.56100000000000000E+03
             1.56100000000000000E+03   1.56100000000000000E+03   1.56100000000000000E+03   1.56100000000000000E+03   1.56100000000000000E+03
             1.56100000000000000E+03   1.56100000000000000E+03   1.56100000000000000E+03   1.56100000000000000E+03   1.56100000000000000E+03
             1.56100000000000000E+03   1.56100000000000000E+03   1.56100000000000000E+03   1.56100000000000000E+03   1.56100000000000000E+03
             1.56100000000000000E+03   1.56100000000000000E+03   1.56100000000000000E+03   1.56100000000000000E+03   1.56100000000000000E+03
             1.56100000000000000E+03   1.56100000000000000E+03   1.56100000000000000E+03   1.56100000000000000E+03   1.56100000000000000E+03
             1.56100000000000000E+03   1.56100000000000000E+03
 ETA=  106   1.57600000000000000E+03   1.57600000000000000E+03   1.57600000000000000E+03   1.57600000000000000E+03   1.57600000000000000E+03
             1.57600000000000000E+03   1.57600000000000000E+03   1.57600000000000000E+03   1.57600000000000000E+03   1.57600000000000000E+03
             1.57600000000000000E+03   1.57600000000000000E+03   1.57600000000000000E+03   1.57600000000000000E+03   1.57600000000000000E+03
             1.57600000000000000E+03   1.57600000000000000E+03   1.57600000000000000E+03   1.57600000000000000E+03   1.57600000000000000E+03
             1.57600000000000000E+03   1.57600000000000000E+03   1.57600000000000000E+03   1.57600000000000000E+03   1.57600000000000000E+03
             1.57600000000000000E+03   1.57600000000000000E+03   1.57600000000000000E+03   1.57600000000000000E+03   1.57600000000000000E+03
             1.57600000000000000E+03   1.57600000000000000E+03   1.57600000000000000E+03   1.57600000000000000E+03   1.57600000000000000E+03
             1.57600000000000000E+03   1.57600000000000000E+03   1.57600000000000000E+03   1.57600000000000000E+03   1.57600000000000000E+03
             1.57600000000000000E+03   1.57600000000000000E+03   1.57600000000000000E+03   1.57600000000000000E+03   1.57600000000000000E+03
             1.57600000000000000E+03   1.57600000000000000E+03   1.57600000000000000E+03   1.57600000000000000E+03   1.57600000000000000E+03
             1.57600000000000000E+03   1.57600000000000000E+03   1.57600000000000000E+03   1.57600000000000000E+03   1.57600000000000000E+03
             1.57600000000000000E+03   1.57600000000000000E+03
 ETA=  107   1.59100000000000000E+03   1.59100000000000000E+03   1.59100000000000000E+03   1.59100000000000000E+03   1.59100000000000000E+03
             1.59100000000000000E+03   1.59100000000000000E+03   1.59100000000000000E+03   1.59100000000000000E+03   1.59100000000000000E+03
             1.59100000000000000E+03   1.59100000000000000E+03   1.59100000000000000E+03   1.59100000000000000E+03   1.59100000000000000E+03
             1.59100000000000000E+03   1.59100000000000000E+03   1.59100000000000000E+03   1.59100000000000000E+03   1.59100000000000000E+03
             1.59100000000000000E+03   1.59100000000000000E+03   1.59100000000000000E+03   1.59100000000000000E+03   1.59100000000000000E+03
             1.59100000000000000E+03   1.59100000000000000E+03   1.59100000000000000E+03   1.59100000000000000E+03   1.59100000000000000E+03
             1.59100000000000000E+03   1.59100000000000000E+03   1.59100000000000000E+03   1.59100000000000000E+03   1.59100000000000000E+03
             1.59100000000000000E+03   1.59100000000000000E+03   1.59100000000000000E+03   1.59100000000000000E+03   1.59100000000000000E+03
             1.59100000000000000E+03   1.59100000000000000E+03   1.59100000000000000E+03   1.59100000000000000E+03   1.59100000000000000E+03
             1.59100000000000000E+03   1.59100000000000000E+03   1.59100000000000000E+03   1.59100000000000000E+03   1.59100000000000000E+03
             1.59100000000000000E+03   1.59100000000000000E+03   1.59100000000000000E+03   1.59100000000000000E+03   1.59100000000000000E+03
             1.59100000000000000E+03   1.59100000000000000E+03
 ETA=  108   1.60600000000000000E+03   1.60600000000000000E+03   1.60600000000000000E+03   1.60600000000000000E+03   1.60600000000000000E+03
             1.60600000000000000E+03   1.60600000000000000E+03   1.60600000000000000E+03   1.60600000000000000E+03   1.60600000000000000E+03
             1.60600000000000000E+03   1.60600000000000000E+03   1.60600000000000000E+03   1.60600000000000000E+03   1.60600000000000000E+03
             1.60600000000000000E+03   1.60600000000000000E+03   1.60600000000000000E+03   1.60600000000000000E+03   1.60600000000000000E+03
             1.60600000000000000E+03   1.60600000000000000E+03   1.60600000000000000E+03   1.60600000000000000E+03   1.60600000000000000E+03
             1.60600000000000000E+03   1.60600000000000000E+03   1.60600000000000000E+03   1.60600000000000000E+03   1.60600000000000000E+03
             1.60600000000000000E+03   1.60600000000000000E+03   1.60600000000000000E+03   1.60600000000000000E+03   1.60600000000000000E+03
             1.60600000000000000E+03   1.60600000000000000E+03   1.60600000000000000E+03   1.60600000000000000E+03   1.60600000000000000E+03
             1.60600000000000000E+03   1.60600000000000000E+03   1.60600000000000000E+03   1.60600000000000000E+03   1.60600000000000000E+03
             1.60600000000000000E+03   1.60600000000000000E+03   1.60600000000000000E+03   1.60600000000000000E+03   1.60600000000000000E+03
             1.60600000000000000E+03   1.60600000000000000E+03   1.60600000000000000E+03   1.60600000000000000E+03   1.60600000000000000E+03
             1.60600000000000000E+03   1.60600000000000000E+03
 ETA=  109   1.62100000000000000E+03   1.62100000000000000E+03   1.62100000000000000E+03   1.62100000000000000E+03   1.62100000000000000E+03
             1.62100000000000000E+03   1.62100000000000000E+03   1.62100000000000000E+03   1.62100000000000000E+03   1.62100000000000000E+03
             1.62100000000000000E+03   1.62100000000000000E+03   1.62100000000000000E+03   1.62100000000000000E+03   1.62100000000000000E+03
             1.62100000000000000E+03   1.62100000000000000E+03   1.62100000000000000E+03   1.62100000000000000E+03   1.62100000000000000E+03
             1.62100000000000000E+03   1.62100000000000000E+03   1.62100000000000000E+03   1.62100000000000000E+03   1.62100000000000000E+03
             1.62100000000000000E+03   1.62100000000000000E+03   1.62100000000000000E+03   1.62100000000000000E+03   1.62100000000000000E+03
             1.62100000000000000E+03   1.62100000000000000E+03   1.62100000000000000E+03   1.62100000000000000E+03   1.62100000000000000E+03
             1.62100000000000000E+03   1.62100000000000000E+03   1.62100000000000000E+03   1.62100000000000000E+03   1.62100000000000000E+03
             1.62100000000000000E+03   1.62100000000000000E+03   1.62100000000000000E+03   1.62100000000000000E+03   1.62100000000000000E+03
             1.62100000000000000E+03   1.62100000000000000E+03   1.62100000000000000E+03   1.62100000000000000E+03   1.62100000000000000E+03
             1.62100000000000000E+03   1.62100000000000000E+03   1.62100000000000000E+03   1.62100000000000000E+03   1.62100000000000000E+03
             1.62100000000000000E+03   1.62100000000000000E+03
 ETA=  110   1.63600000000000000E+03   1.63600000000000000E+03   1.63600000000000000E+03   1.63600000000000000E+03   1.63600000000000000E+03
             1.63600000000000000E+03   1.63600000000000000E+03   1.63600000000000000E+03   1.63600000000000000E+03   1.63600000000000000E+03
             1.63600000000000000E+03   1.63600000000000000E+03   1.63600000000000000E+03   1.63600000000000000E+03   1.63600000000000000E+03
             1.63600000000000000E+03   1.63600000000000000E+03   1.63600000000000000E+03   1.63600000000000000E+03   1.63600000000000000E+03
             1.63600000000000000E+03   1.63600000000000000E+03   1.63600000000000000E+03   1.63600000000000000E+03   1.63600000000000000E+03
             1.63600000000000000E+03   1.63600000000000000E+03   1.63600000000000000E+03   1.63600000000000000E+03   1.63600000000000000E+03
             1.63600000000000000E+03   1.63600000000000000E+03   1.63600000000000000E+03   1.63600000000000000E+03   1.63600000000000000E+03
             1.63600000000000000E+03   1.63600000000000000E+03   1.63600000000000000E+03   1.63600000000000000E+03   1.63600000000000000E+03
             1.63600000000000000E+03   1.63600000000000000E+03   1.63600000000000000E+03   1.63600000000000000E+03   1.63600000000000000E+03
             1.63600000000000000E+03   1.63600000000000000E+03   1.63600000000000000E+03   1.63600000000000000E+03   1.63600000000000000E+03
             1.63600000000000000E+03   1.63600000000000000E+03   1.63600000000000000E+03   1.63600000000000000E+03   1.63600000000000000E+03
             1.63600000000000000E+03   1.63600000000000000E+03
 ETA=  111   1.65100000000000000E+03   1.65100000000000000E+03   1.65100000000000000E+03   1.65100000000000000E+03   1.65100000000000000E+03
             1.65100000000000000E+03   1.65100000000000000E+03   1.65100000000000000E+03   1.65100000000000000E+03   1.65100000000000000E+03
             1.65100000000000000E+03   1.65100000000000000E+03   1.65100000000000000E+03   1.65100000000000000E+03   1.65100000000000000E+03
             1.65100000000000000E+03   1.65100000000000000E+03   1.65100000000000000E+03   1.65100000000000000E+03   1.65100000000000000E+03
             1.65100000000000000E+03   1.65100000000000000E+03   1.65100000000000000E+03   1.65100000000000000E+03   1.65100000000000000E+03
             1.65100000000000000E+03   1.65100000000000000E+03   1.65100000000000000E+03   1.65100000000000000E+03   1.65100000000000000E+03
             1.65100000000000000E+03   1.65100000000000000E+03   1.65100000000000000E+03   1.65100000000000000E+03   1.65100000000000000E+03
             1.65100000000000000E+03   1.65100000000000000E+03   1.65100000000000000E+03   1.65100000000000000E+03   1.65100000000000000E+03
             1.65100000000000000E+03   1.65100000000000000E+03   1.65100000000000000E+03   1.65100000000000000E+03   1.65100000000000000E+03
             1.65100000000000000E+03   1.65100000000000000E+03   1.65100000000000000E+03   1.65100000000000000E+03   1.65100000000000000E+03
             1.65100000000000000E+03   1.65100000000000000E+03   1.65100000000000000E+03   1.65100000000000000E+03   1.65100000000000000E+03
             1.65100000000000000E+03   1.65100000000000000E+03
